@<TRIPOS>MOLECULE
3R136
137   139    1
SMALL
USER_CHARGES


@<TRIPOS>ATOM
      1 CA         28.1124   23.7027   -3.6945 C.3       0 UNK        -0.1979 
      2 C          28.6910   24.2817   -2.4131 C.2       0 UNK         0.4864 
      3 O          28.2597   25.3520   -1.9775 O.2       0 UNK        -0.5359 
      4 N          29.6509   23.5768   -1.7931 N.am      1 UNK        -0.4318 
      5 CA         30.3356   23.9905   -0.5602 C.3       1 UNK         0.0824 
      6 C6         31.4838   23.0274   -0.1614 C.3       12 UNK        -0.0944 
      7 S7         30.9084   21.3773    0.3804 S.3       12 UNK        -0.2672 
      8 C8         32.0588   20.9729    1.7353 C.3       12 UNK         0.0333 
      9 C9         32.1157   21.9778    2.8885 C.ar      12 UNK        -0.0807 
     10 C10        33.3652   22.2917    3.4306 C.ar      12 UNK        -0.0894 
     11 C11        33.4768   23.1143    4.5526 C.ar      12 UNK        -0.0804 
     12 C12        32.3198   23.6534    5.1233 C.ar      12 UNK        -0.0824 
     13 C13        31.0581   23.3663    4.5892 C.ar      12 UNK        -0.0762 
     14 C14        30.9618   22.5230    3.4720 C.ar      12 UNK        -0.0782 
     15 C15        29.8065   23.8958    5.2896 C.3       12 UNK         0.0230 
     16 S16        29.0158   25.3177    4.4611 S.3       12 UNK        -0.2608 
     17 C17        30.3638   26.5402    4.3753 C.3       12 UNK        -0.0989 
     18 CA         29.9754   27.9118    3.7585 C.3       5 UNK         0.0716 
     19 N          29.5682   27.8142    2.3510 N.am      5 UNK        -0.4135 
     20 C          29.4185   28.8599    1.5228 C.2       4 UNK         0.5031 
     21 O          29.5638   30.0336    1.8626 O.2       4 UNK        -0.5229 
     22 CA         28.9691   28.5701    0.0823 C.3       4 UNK         0.0329 
     23 CB         30.1654   28.1284   -0.7735 C.3       4 UNK        -0.2001 
     24 N          27.8814   27.5938   -0.0289 N.am      4 UNK        -0.4303 
     25 C          26.6929   27.6837    0.5894 C.2       3 UNK         0.5044 
     26 O          26.4008   28.5613    1.4014 O.2       3 UNK        -0.5152 
     27 CA         25.6696   26.5865    0.2735 C.3       3 UNK         0.0319 
     28 CB         25.1279   26.7183   -1.1595 C.3       3 UNK        -0.2001 
     29 N          26.2804   25.2749    0.4645 N.am      3 UNK        -0.4354 
     30 C          26.3917   24.6773    1.6593 C.2       2 UNK         0.4964 
     31 O          25.8313   25.0774    2.6799 O.2       2 UNK        -0.5047 
     32 CA         27.2807   23.4254    1.7380 C.3       2 UNK         0.0288 
     33 CB         26.4302   22.1501    1.6271 C.3       2 UNK        -0.2113 
     34 N          28.3382   23.3827    0.7271 N.am      2 UNK        -0.4145 
     35 C          29.3620   24.2442    0.6083 C.2       1 UNK         0.5006 
     36 O          29.5349   25.2244    1.3271 O.2       1 UNK        -0.5103 
     37 C          29.0006   28.7137    4.6488 C.2       5 UNK         0.5055 
     38 O          29.4242   29.1975    5.7001 O.2       5 UNK        -0.5220 
     39 N          27.7407   28.8618    4.2161 N.am      6 UNK        -0.4450 
     40 CA         26.7332   29.6946    4.8665 C.3       6 UNK         0.0367 
     41 CB         25.3998   28.9294    4.9132 C.3       6 UNK        -0.1929 
     42 C          26.5606   31.0357    4.1362 C.2       6 UNK         0.5070 
     43 O          26.5252   32.0780    4.7907 O.2       6 UNK        -0.5237 
     44 N          26.4120   30.9896    2.8056 N.am      7 UNK        -0.4739 
     45 CA         25.9775   32.1247    1.9896 C.3       7 UNK         0.0276 
     46 CB         25.2285   31.5880    0.7580 C.3       7 UNK        -0.1927 
     47 C          27.1034   33.0686    1.5409 C.2       7 UNK         0.5013 
     48 O          26.8164   34.2438    1.3053 O.2       7 UNK        -0.5193 
     49 N          28.3313   32.5578    1.3814 N.am      8 UNK        -0.4253 
     50 CA         29.4519   33.2901    0.7891 C.3       8 UNK         0.0242 
     51 CB         29.9548   32.5461   -0.4641 C.3       8 UNK        -0.2000 
     52 C          30.5660   33.5075    1.8178 C.2       8 UNK         0.4948 
     53 O          30.7529   34.6364    2.2745 O.2       8 UNK        -0.5275 
     54 N          31.2948   32.4386    2.1523 N.am      9 UNK        -0.4246 
     55 CA         32.4636   32.4391    3.0274 C.3       9 UNK         0.0261 
     56 CB         33.6680   33.0977    2.3258 C.3       9 UNK        -0.1959 
     57 C          32.7862   30.9887    3.3902 C.2       9 UNK         0.5033 
     58 O          32.4902   30.0906    2.5977 O.2       9 UNK        -0.5390 
     59 N          33.3964   30.7948    4.5677 N.am      10 UNK        -0.4215 
     60 CA         33.7232   29.5013    5.1772 C.3       10 UNK         0.0240 
     61 CB         34.5890   29.7303    6.4278 C.3       10 UNK        -0.1982 
     62 C          34.4089   28.5188    4.2107 C.2       10 UNK         0.4970 
     63 O          35.5185   28.7895    3.7469 O.2       10 UNK        -0.4916 
     64 N          33.7076   27.4144    3.9327 N.am      11 UNK        -0.4279 
     65 CA         34.1016   26.3200    3.0303 C.3       11 UNK         0.1003 
     66 C          34.1247   26.6923    1.5170 C.2       11 UNK         0.5709 
     67 N          33.5907   27.8347    1.0984 N.am      11 UNK        -0.7358 
     68 O          34.6022   25.9127    0.6962 O.2       11 UNK        -0.4999 
     69 C69        35.3836   25.5714    3.4987 C.3       12 UNK        -0.0954 
     70 S70        35.3157   25.1030    5.2639 S.3       12 UNK        -0.2268 
     71 C71        34.8452   23.3485    5.1836 C.3       12 UNK         0.0203 
     72 H72        27.0399   23.5459   -3.5835 H         1 UNK         0.0888 
     73 H73        28.2719   24.3940   -4.5214 H         1 UNK         0.0888 
     74 H74        28.5709   22.7490   -3.9551 H         1 UNK         0.0888 
     75 H75        29.9556   22.6973   -2.1864 H         1 UNK         0.3017 
     76 H76        30.7990   24.9516   -0.7883 H         1 UNK         0.0873 
     77 H77        32.0825   23.4857    0.6278 H         1 UNK         0.0745 
     78 H78        32.1674   22.8936   -1.0011 H         1 UNK         0.0745 
     79 H79        31.7776   20.0015    2.1437 H         1 UNK         0.0705 
     80 H80        33.0490   20.8407    1.2960 H         1 UNK         0.0705 
     81 H81        34.2579   21.8564    3.0020 H         1 UNK         0.1334 
     82 H82        32.4042   24.2758    6.0039 H         1 UNK         0.1417 
     83 H83        29.9887   22.2686    3.0755 H         1 UNK         0.1562 
     84 H84        30.0383   24.1791    6.3175 H         1 UNK         0.0748 
     85 H85        29.0735   23.0913    5.3630 H         1 UNK         0.0748 
     86 H86        31.1527   26.0938    3.7722 H         1 UNK         0.0940 
     87 H87        30.7784   26.6727    5.3765 H         1 UNK         0.0940 
     88 H88        30.8885   28.5052    3.7517 H         1 UNK         0.0703 
     89 H89        29.4346   26.8698    1.9869 H         1 UNK         0.3081 
     90 H90        28.5882   29.5055   -0.3325 H         1 UNK         0.0719 
     91 H91        30.6245   27.2211   -0.3826 H         1 UNK         0.0809 
     92 H92        30.9373   28.8992   -0.7869 H         1 UNK         0.0809 
     93 H93        29.8724   27.9416   -1.8068 H         1 UNK         0.0809 
     94 H94        28.0333   26.8205   -0.6707 H         1 UNK         0.2990 
     95 H95        24.8270   26.7009    0.9591 H         1 UNK         0.0690 
     96 H96        24.3723   25.9602   -1.3661 H         1 UNK         0.0788 
     97 H97        25.9130   26.6190   -1.9094 H         1 UNK         0.0788 
     98 H98        24.6586   27.6919   -1.3075 H         1 UNK         0.0788 
     99 H99        26.8043   24.9013   -0.3165 H         1 UNK         0.2993 
    100 H100       27.7606   23.4280    2.7170 H         1 UNK         0.0949 
    101 H101       27.0365   21.2552    1.7701 H         1 UNK         0.0767 
    102 H102       25.6491   22.1350    2.3886 H         1 UNK         0.0767 
    103 H103       25.9404   22.0744    0.6554 H         1 UNK         0.0767 
    104 H104       28.3071   22.6110    0.0767 H         1 UNK         0.3013 
    105 H105       27.4871   28.4592    3.3220 H         1 UNK         0.3121 
    106 H106       27.0270   29.9118    5.8957 H         1 UNK         0.0774 
    107 H107       24.6218   29.5292    5.3874 H         1 UNK         0.0815 
    108 H108       25.0463   28.6641    3.9157 H         1 UNK         0.0815 
    109 H109       25.4946   28.0078    5.4876 H         1 UNK         0.0815 
    110 H110       26.4508   30.0877    2.3323 H         1 UNK         0.2987 
    111 H111       25.2712   32.7208    2.5725 H         1 UNK         0.0949 
    112 H112       25.8806   30.9913    0.1187 H         1 UNK         0.0806 
    113 H113       24.3827   30.9642    1.0478 H         1 UNK         0.0806 
    114 H114       24.8357   32.4051    0.1512 H         1 UNK         0.0806 
    115 H115       28.5191   31.5962    1.6569 H         1 UNK         0.3010 
    116 H116       29.1332   34.2817    0.4608 H         1 UNK         0.0829 
    117 H117       29.1776   32.4956   -1.2268 H         1 UNK         0.0813 
    118 H118       30.8079   33.0624   -0.9065 H         1 UNK         0.0813 
    119 H119       30.2694   31.5257   -0.2471 H         1 UNK         0.0813 
    120 H120       31.0220   31.5147    1.8224 H         1 UNK         0.3038 
    121 H121       32.2184   32.9875    3.9394 H         1 UNK         0.0769 
    122 H122       33.4769   34.1459    2.0963 H         1 UNK         0.0811 
    123 H123       33.9126   32.5899    1.3919 H         1 UNK         0.0811 
    124 H124       34.5568   33.0654    2.9571 H         1 UNK         0.0811 
    125 H125       33.6284   31.6090    5.1179 H         1 UNK         0.3204 
    126 H126       32.7778   29.0653    5.5069 H         1 UNK         0.0748 
    127 H127       34.0674   30.3356    7.1695 H         1 UNK         0.0771 
    128 H128       34.8422   28.7826    6.9056 H         1 UNK         0.0771 
    129 H129       35.5266   30.2314    6.1827 H         1 UNK         0.0771 
    130 H130       32.8062   27.3041    4.3661 H         1 UNK         0.2980 
    131 H131       33.2886   25.5985    3.0963 H         1 UNK         0.0545 
    132 H132       33.6136   28.0486    0.1155 H         1 UNK         0.3459 
    133 H133       33.2036   28.5126    1.7496 H         1 UNK         0.3459 
    134 H134       36.2652   26.1961    3.3487 H         1 UNK         0.0616 
    135 H135       35.5450   24.6732    2.9002 H         1 UNK         0.0616 
    136 H136       34.8355   22.9459    6.1973 H         1 UNK         0.0634 
    137 H137       35.6237   22.8033    4.6475 H         1 UNK         0.0634 
@<TRIPOS>BOND
     1    1    2 1    
     2    1   72 1    
     3    1   73 1    
     4    1   74 1    
     5    2    3 2    
     6    2    4 am   BACKBONE|DICT|INTERRES
     7    4    5 1    
     8    4   75 1    
     9    5    6 1    
    10    5   35 1    
    11    5   76 1    
    12    6    7 1    
    13    6   77 1    
    14    6   78 1    
    15    7    8 1    
    16    8    9 1    
    17    8   79 1    
    18    8   80 1    
    19    9   10 ar   
    20    9   14 ar   
    21   10   11 ar   
    22   10   81 1    
    23   11   12 ar   
    24   11   71 1    
    25   12   13 ar   
    26   12   82 1    
    27   13   14 ar   
    28   13   15 1    
    29   14   83 1    
    30   15   16 1    
    31   15   84 1    
    32   15   85 1    
    33   16   17 1    
    34   17   18 1    
    35   17   86 1    
    36   17   87 1    
    37   18   19 1    
    38   18   37 1    
    39   18   88 1    
    40   19   20 am   BACKBONE|DICT|INTERRES
    41   19   89 1    
    42   20   21 2    
    43   20   22 1    
    44   22   23 1    
    45   22   24 1    
    46   22   90 1    
    47   23   91 1    
    48   23   92 1    
    49   23   93 1    
    50   24   25 am   BACKBONE|DICT|INTERRES
    51   24   94 1    
    52   25   26 2    
    53   25   27 1    
    54   27   28 1    
    55   27   29 1    
    56   27   95 1    
    57   28   96 1    
    58   28   97 1    
    59   28   98 1    
    60   29   30 am   BACKBONE|DICT|INTERRES
    61   29   99 1    
    62   30   31 2    
    63   30   32 1    
    64   32   33 1    
    65   32   34 1    
    66   32  100 1    
    67   33  101 1    
    68   33  102 1    
    69   33  103 1    
    70   34   35 am   BACKBONE|DICT|INTERRES
    71   34  104 1    
    72   35   36 2    
    73   37   38 2    
    74   37   39 am   BACKBONE|DICT|INTERRES
    75   39   40 1    
    76   39  105 1    
    77   40   41 1    
    78   40   42 1    
    79   40  106 1    
    80   41  107 1    
    81   41  108 1    
    82   41  109 1    
    83   42   43 2    
    84   42   44 am   BACKBONE|DICT|INTERRES
    85   44   45 1    
    86   44  110 1    
    87   45   46 1    
    88   45   47 1    
    89   45  111 1    
    90   46  112 1    
    91   46  113 1    
    92   46  114 1    
    93   47   48 2    
    94   47   49 am   BACKBONE|DICT|INTERRES
    95   49   50 1    
    96   49  115 1    
    97   50   51 1    
    98   50   52 1    
    99   50  116 1    
   100   51  117 1    
   101   51  118 1    
   102   51  119 1    
   103   52   53 2    
   104   52   54 am   BACKBONE|DICT|INTERRES
   105   54   55 1    
   106   54  120 1    
   107   55   56 1    
   108   55   57 1    
   109   55  121 1    
   110   56  122 1    
   111   56  123 1    
   112   56  124 1    
   113   57   58 2    
   114   57   59 am   BACKBONE|DICT|INTERRES
   115   59   60 1    
   116   59  125 1    
   117   60   61 1    
   118   60   62 1    
   119   60  126 1    
   120   61  127 1    
   121   61  128 1    
   122   61  129 1    
   123   62   63 2    
   124   62   64 am   BACKBONE|DICT|INTERRES
   125   64   65 1    
   126   64  130 1    
   127   65   66 1    
   128   65   69 1    
   129   65  131 1    
   130   66   67 am   BACKBONE|DICT|INTERRES
   131   66   68 2    
   132   67  132 1    
   133   67  133 1    
   134   69   70 1    
   135   69  134 1    
   136   69  135 1    
   137   70   71 1    
   138   71  136 1    
   139   71  137 1    
@<TRIPOS>SUBSTRUCTURE
     1 UNK         1 GROUP             0       ****    0 ROOT    
