@<TRIPOS>MOLECULE
3R136
137   139    1
SMALL
USER_CHARGES


@<TRIPOS>ATOM
      1 CA         33.1187   19.9302    1.1486 C.3       0 UNK        -0.1979 
      2 C          32.5596   21.3085    1.4690 C.2       0 UNK         0.4864 
      3 O          32.9558   21.9100    2.4682 O.2       0 UNK        -0.5359 
      4 N          31.6480   21.8090    0.6286 N.am      1 UNK        -0.4318 
      5 CA         31.0159   23.1224    0.7351 C.3       1 UNK         0.0824 
      6 C6         29.7176   23.0707    1.5872 C.3       12 UNK        -0.0944 
      7 S7         29.4090   24.6205    2.4966 S.3       12 UNK        -0.2672 
      8 C8         29.0637   23.9829    4.1691 C.3       12 UNK         0.0333 
      9 C9         28.7997   25.1299    5.1307 C.ar      12 UNK        -0.0807 
     10 C10        29.8698   25.7884    5.7416 C.ar      12 UNK        -0.0894 
     11 C11        29.6504   26.9090    6.5465 C.ar      12 UNK        -0.0804 
     12 C12        28.3414   27.3467    6.7681 C.ar      12 UNK        -0.0824 
     13 C13        27.2582   26.6712    6.1975 C.ar      12 UNK        -0.0762 
     14 C14        27.4928   25.5560    5.3865 C.ar      12 UNK        -0.0782 
     15 C15        25.8412   27.1607    6.4588 C.3       12 UNK         0.0230 
     16 S16        25.3978   28.5371    5.3504 S.3       12 UNK        -0.2608 
     17 C17        24.6331   27.6725    3.9370 C.3       12 UNK        -0.0989 
     18 CA         25.6463   27.2469    2.8411 C.3       5 UNK         0.0716 
     19 N          25.1922   26.1275    2.0124 N.am      5 UNK        -0.4135 
     20 C          24.0206   25.9782    1.3804 C.2       4 UNK         0.5031 
     21 O          23.0432   26.7141    1.5320 O.2       4 UNK        -0.5229 
     22 CA         23.9580   24.8109    0.3718 C.3       4 UNK         0.0329 
     23 CB         22.5233   24.5125   -0.1029 C.3       4 UNK        -0.2001 
     24 N          24.8003   25.0814   -0.7983 N.am      4 UNK        -0.4303 
     25 C          26.1394   25.0648   -0.7985 C.2       3 UNK         0.5044 
     26 O          26.8118   24.7064    0.1733 O.2       3 UNK        -0.5152 
     27 CA         26.8419   25.5633   -2.0684 C.3       3 UNK         0.0319 
     28 CB         26.4099   26.9996   -2.4336 C.3       3 UNK        -0.2001 
     29 N          28.2803   25.5250   -1.8282 N.am      3 UNK        -0.4354 
     30 C          29.2453   25.5605   -2.7514 C.2       2 UNK         0.4964 
     31 O          29.0336   25.6151   -3.9636 O.2       2 UNK        -0.5047 
     32 CA         30.6975   25.5548   -2.2409 C.3       2 UNK         0.0288 
     33 CB         31.2355   26.9918   -2.1923 C.3       2 UNK        -0.2113 
     34 N          30.8662   24.9353   -0.9202 N.am      2 UNK        -0.4145 
     35 C          30.7594   23.6179   -0.6968 C.2       1 UNK         0.5006 
     36 O          30.4808   22.7955   -1.5755 O.2       1 UNK        -0.5103 
     37 C          26.1496   28.4119    1.9650 C.2       5 UNK         0.5055 
     38 O          25.6373   28.6444    0.8673 O.2       5 UNK        -0.5220 
     39 N          27.1789   29.1053    2.4591 N.am      6 UNK        -0.4450 
     40 CA         27.9057   30.1688    1.7747 C.3       6 UNK         0.0367 
     41 CB         28.8733   29.5521    0.7416 C.3       6 UNK        -0.1929 
     42 C          28.6469   31.0133    2.8233 C.2       6 UNK         0.5070 
     43 O          28.5544   30.7272    4.0204 O.2       6 UNK        -0.5237 
     44 N          29.3624   32.0445    2.3554 N.am      7 UNK        -0.4739 
     45 CA         30.2275   32.9081    3.1674 C.3       7 UNK         0.0276 
     46 CB         30.6942   34.0888    2.2991 C.3       7 UNK        -0.1927 
     47 C          31.4432   32.1536    3.7377 C.2       7 UNK         0.5013 
     48 O          31.8217   31.1131    3.1987 O.2       7 UNK        -0.5193 
     49 N          32.0657   32.7238    4.7806 N.am      8 UNK        -0.4253 
     50 CA         33.1794   32.1494    5.5530 C.3       8 UNK         0.0242 
     51 CB         33.6615   33.1789    6.5883 C.3       8 UNK        -0.2000 
     52 C          34.3718   31.6274    4.7277 C.2       8 UNK         0.4948 
     53 O          34.9675   30.6156    5.0976 O.2       8 UNK        -0.5275 
     54 N          34.6832   32.3059    3.6157 N.am      9 UNK        -0.4246 
     55 CA         35.7341   31.9177    2.6705 C.3       9 UNK         0.0261 
     56 CB         36.0993   33.1394    1.8104 C.3       9 UNK        -0.1959 
     57 C          35.3595   30.7224    1.7699 C.2       9 UNK         0.5033 
     58 O          36.2533   30.1519    1.1428 O.2       9 UNK        -0.5390 
     59 N          34.0670   30.3800    1.6944 N.am      10 UNK        -0.4215 
     60 CA         33.5003   29.3545    0.8167 C.3       10 UNK         0.0240 
     61 CB         32.4458   30.0342   -0.0727 C.3       10 UNK        -0.1982 
     62 C          32.9059   28.1656    1.5987 C.2       10 UNK         0.4970 
     63 O          32.3148   27.2782    0.9788 O.2       10 UNK        -0.4916 
     64 N          33.0726   28.1530    2.9290 N.am      11 UNK        -0.4279 
     65 CA         32.6903   27.0513    3.8224 C.3       11 UNK         0.1003 
     66 C          33.4114   25.7208    3.4719 C.2       11 UNK         0.5709 
     67 N          32.6891   24.6111    3.5031 N.am      11 UNK        -0.7358 
     68 O          34.6149   25.6875    3.2212 O.2       11 UNK        -0.4999 
     69 C69        32.9459   27.4188    5.3075 C.3       12 UNK        -0.0954 
     70 S70        31.7467   28.6330    5.9502 S.3       12 UNK        -0.2268 
     71 C71        30.8219   27.6500    7.1757 C.3       12 UNK         0.0203 
     72 H72        32.6737   19.5090    0.2473 H         1 UNK         0.0888 
     73 H73        34.1965   19.9883    1.0001 H         1 UNK         0.0888 
     74 H74        32.9244   19.2462    1.9741 H         1 UNK         0.0888 
     75 H75        31.3889   21.3040   -0.2104 H         1 UNK         0.3017 
     76 H76        31.7357   23.8066    1.1854 H         1 UNK         0.0873 
     77 H77        28.8408   22.8318    0.9815 H         1 UNK         0.0745 
     78 H78        29.7886   22.2632    2.3177 H         1 UNK         0.0745 
     79 H79        29.9079   23.3870    4.5201 H         1 UNK         0.0705 
     80 H80        28.2037   23.3124    4.1305 H         1 UNK         0.0705 
     81 H81        30.8778   25.4438    5.5687 H         1 UNK         0.1334 
     82 H82        28.1620   28.2176    7.3841 H         1 UNK         0.1417 
     83 H83        26.6602   25.0389    4.9288 H         1 UNK         0.1562 
     84 H84        25.7650   27.5084    7.4902 H         1 UNK         0.0748 
     85 H85        25.1234   26.3445    6.3660 H         1 UNK         0.0748 
     86 H86        23.8616   28.3193    3.5150 H         1 UNK         0.0940 
     87 H87        24.1016   26.7991    4.3174 H         1 UNK         0.0940 
     88 H88        26.5320   26.8513    3.3326 H         1 UNK         0.0703 
     89 H89        25.9334   25.5032    1.7041 H         1 UNK         0.3081 
     90 H90        24.3330   23.9174    0.8762 H         1 UNK         0.0719 
     91 H91        22.0899   25.3562   -0.6414 H         1 UNK         0.0809 
     92 H92        22.4959   23.6441   -0.7614 H         1 UNK         0.0809 
     93 H93        21.8703   24.2960    0.7437 H         1 UNK         0.0809 
     94 H94        24.3224   25.4099   -1.6249 H         1 UNK         0.2990 
     95 H95        26.5961   24.8804   -2.8840 H         1 UNK         0.0690 
     96 H96        26.6066   27.6957   -1.6169 H         1 UNK         0.0788 
     97 H97        25.3448   27.0541   -2.6597 H         1 UNK         0.0788 
     98 H98        26.9372   27.3652   -3.3147 H         1 UNK         0.0788 
     99 H99        28.5268   25.4078   -0.8523 H         1 UNK         0.2993 
    100 H100       31.2942   24.9895   -2.9604 H         1 UNK         0.0949 
    101 H101       30.6580   27.6028   -1.4976 H         1 UNK         0.0767 
    102 H102       32.2798   27.0170   -1.8798 H         1 UNK         0.0767 
    103 H103       31.1779   27.4671   -3.1725 H         1 UNK         0.0767 
    104 H104       31.1110   25.5540   -0.1558 H         1 UNK         0.3013 
    105 H105       27.4929   28.9426    3.4101 H         1 UNK         0.3121 
    106 H106       27.1888   30.8170    1.2664 H         1 UNK         0.0774 
    107 H107       29.3404   30.3235    0.1303 H         1 UNK         0.0815 
    108 H108       29.6689   28.9838    1.2265 H         1 UNK         0.0815 
    109 H109       28.3578   28.8802    0.0552 H         1 UNK         0.0815 
    110 H110       29.3933   32.1949    1.3580 H         1 UNK         0.2987 
    111 H111       29.6368   33.2887    4.0036 H         1 UNK         0.0949 
    112 H112       31.2944   33.7536    1.4518 H         1 UNK         0.0806 
    113 H113       29.8474   34.6531    1.9078 H         1 UNK         0.0806 
    114 H114       31.3043   34.7870    2.8737 H         1 UNK         0.0806 
    115 H115       31.6954   33.5959    5.1307 H         1 UNK         0.3010 
    116 H116       32.7752   31.2973    6.0994 H         1 UNK         0.0829 
    117 H117       32.8618   33.4584    7.2744 H         1 UNK         0.0813 
    118 H118       34.4746   32.7739    7.1928 H         1 UNK         0.0813 
    119 H119       34.0311   34.0882    6.1126 H         1 UNK         0.0813 
    120 H120       34.1391   33.1249    3.3857 H         1 UNK         0.3038 
    121 H121       36.6189   31.6272    3.2413 H         1 UNK         0.0769 
    122 H122       36.9082   32.9022    1.1178 H         1 UNK         0.0811 
    123 H123       36.4384   33.9725    2.4264 H         1 UNK         0.0811 
    124 H124       35.2520   33.4825    1.2153 H         1 UNK         0.0811 
    125 H125       33.3855   30.8578    2.2835 H         1 UNK         0.3204 
    126 H126       34.2729   28.9387    0.1673 H         1 UNK         0.0748 
    127 H127       31.9761   29.3252   -0.7511 H         1 UNK         0.0771 
    128 H128       31.6595   30.4936    0.5253 H         1 UNK         0.0771 
    129 H129       32.8942   30.8152   -0.6868 H         1 UNK         0.0771 
    130 H130       33.5536   28.9258    3.3638 H         1 UNK         0.2980 
    131 H131       31.6186   26.8969    3.6813 H         1 UNK         0.0545 
    132 H132       33.1119   23.7191    3.2673 H         1 UNK         0.3459 
    133 H133       31.6939   24.6529    3.6501 H         1 UNK         0.3459 
    134 H134       32.9184   26.5318    5.9422 H         1 UNK         0.0616 
    135 H135       33.9493   27.8309    5.4300 H         1 UNK         0.0616 
    136 H136       30.4623   28.3295    7.9498 H         1 UNK         0.0634 
    137 H137       31.4840   26.9467    7.6823 H         1 UNK         0.0634 
@<TRIPOS>BOND
     1    1    2 1    
     2    1   72 1    
     3    1   73 1    
     4    1   74 1    
     5    2    3 2    
     6    2    4 am   BACKBONE|DICT|INTERRES
     7    4    5 1    
     8    4   75 1    
     9    5    6 1    
    10    5   35 1    
    11    5   76 1    
    12    6    7 1    
    13    6   77 1    
    14    6   78 1    
    15    7    8 1    
    16    8    9 1    
    17    8   79 1    
    18    8   80 1    
    19    9   10 ar   
    20    9   14 ar   
    21   10   11 ar   
    22   10   81 1    
    23   11   12 ar   
    24   11   71 1    
    25   12   13 ar   
    26   12   82 1    
    27   13   14 ar   
    28   13   15 1    
    29   14   83 1    
    30   15   16 1    
    31   15   84 1    
    32   15   85 1    
    33   16   17 1    
    34   17   18 1    
    35   17   86 1    
    36   17   87 1    
    37   18   19 1    
    38   18   37 1    
    39   18   88 1    
    40   19   20 am   BACKBONE|DICT|INTERRES
    41   19   89 1    
    42   20   21 2    
    43   20   22 1    
    44   22   23 1    
    45   22   24 1    
    46   22   90 1    
    47   23   91 1    
    48   23   92 1    
    49   23   93 1    
    50   24   25 am   BACKBONE|DICT|INTERRES
    51   24   94 1    
    52   25   26 2    
    53   25   27 1    
    54   27   28 1    
    55   27   29 1    
    56   27   95 1    
    57   28   96 1    
    58   28   97 1    
    59   28   98 1    
    60   29   30 am   BACKBONE|DICT|INTERRES
    61   29   99 1    
    62   30   31 2    
    63   30   32 1    
    64   32   33 1    
    65   32   34 1    
    66   32  100 1    
    67   33  101 1    
    68   33  102 1    
    69   33  103 1    
    70   34   35 am   BACKBONE|DICT|INTERRES
    71   34  104 1    
    72   35   36 2    
    73   37   38 2    
    74   37   39 am   BACKBONE|DICT|INTERRES
    75   39   40 1    
    76   39  105 1    
    77   40   41 1    
    78   40   42 1    
    79   40  106 1    
    80   41  107 1    
    81   41  108 1    
    82   41  109 1    
    83   42   43 2    
    84   42   44 am   BACKBONE|DICT|INTERRES
    85   44   45 1    
    86   44  110 1    
    87   45   46 1    
    88   45   47 1    
    89   45  111 1    
    90   46  112 1    
    91   46  113 1    
    92   46  114 1    
    93   47   48 2    
    94   47   49 am   BACKBONE|DICT|INTERRES
    95   49   50 1    
    96   49  115 1    
    97   50   51 1    
    98   50   52 1    
    99   50  116 1    
   100   51  117 1    
   101   51  118 1    
   102   51  119 1    
   103   52   53 2    
   104   52   54 am   BACKBONE|DICT|INTERRES
   105   54   55 1    
   106   54  120 1    
   107   55   56 1    
   108   55   57 1    
   109   55  121 1    
   110   56  122 1    
   111   56  123 1    
   112   56  124 1    
   113   57   58 2    
   114   57   59 am   BACKBONE|DICT|INTERRES
   115   59   60 1    
   116   59  125 1    
   117   60   61 1    
   118   60   62 1    
   119   60  126 1    
   120   61  127 1    
   121   61  128 1    
   122   61  129 1    
   123   62   63 2    
   124   62   64 am   BACKBONE|DICT|INTERRES
   125   64   65 1    
   126   64  130 1    
   127   65   66 1    
   128   65   69 1    
   129   65  131 1    
   130   66   67 am   BACKBONE|DICT|INTERRES
   131   66   68 2    
   132   67  132 1    
   133   67  133 1    
   134   69   70 1    
   135   69  134 1    
   136   69  135 1    
   137   70   71 1    
   138   71  136 1    
   139   71  137 1    
@<TRIPOS>SUBSTRUCTURE
     1 UNK         1 GROUP             0       ****    0 ROOT    
