@<TRIPOS>MOLECULE
3R136
137   139    1
SMALL
USER_CHARGES


@<TRIPOS>ATOM
      1 CA         29.5023   24.0391   -3.3544 C.3       0 UNK        -0.1979 
      2 C          28.5272   24.0406   -2.1877 C.2       0 UNK         0.4864 
      3 O          27.3394   24.2936   -2.3915 O.2       0 UNK        -0.5359 
      4 N          29.0186   23.7354   -0.9767 N.am      1 UNK        -0.4318 
      5 CA         28.3027   23.7755    0.3103 C.3       1 UNK         0.0824 
      6 C6         29.2082   23.3200    1.4788 C.3       12 UNK        -0.0944 
      7 S7         30.6916   24.3661    1.6667 S.3       12 UNK        -0.2672 
      8 C8         31.0849   24.1059    3.4261 C.3       12 UNK         0.0333 
      9 C9         30.6032   25.2577    4.2982 C.ar      12 UNK        -0.0807 
     10 C10        31.5276   26.1521    4.8457 C.ar      12 UNK        -0.0894 
     11 C11        31.1109   27.1956    5.6789 C.ar      12 UNK        -0.0804 
     12 C12        29.7446   27.3567    5.9339 C.ar      12 UNK        -0.0824 
     13 C13        28.8055   26.4762    5.3849 C.ar      12 UNK        -0.0762 
     14 C14        29.2441   25.4194    4.5816 C.ar      12 UNK        -0.0782 
     15 C15        27.3204   26.6546    5.6845 C.3       12 UNK         0.0230 
     16 S16        26.2868   26.7682    4.1834 S.3       12 UNK        -0.2608 
     17 C17        26.9449   28.2648    3.3723 C.3       12 UNK        -0.0989 
     18 CA         27.2719   28.0159    1.8762 C.3       5 UNK         0.0716 
     19 N          26.0627   27.6928    1.1068 N.am      5 UNK        -0.4135 
     20 C          26.0313   27.1035   -0.0940 C.2       4 UNK         0.5031 
     21 O          27.0407   26.7931   -0.7288 O.2       4 UNK        -0.5229 
     22 CA         24.6524   26.8707   -0.7141 C.3       4 UNK         0.0329 
     23 CB         24.2211   28.1056   -1.5298 C.3       4 UNK        -0.2001 
     24 N          24.7086   25.6854   -1.5684 N.am      4 UNK        -0.4303 
     25 C          23.6430   25.0154   -2.0265 C.2       3 UNK         0.5044 
     26 O          22.4770   25.3317   -1.7861 O.2       3 UNK        -0.5152 
     27 CA         23.9183   23.7710   -2.8817 C.3       3 UNK         0.0319 
     28 CB         24.4564   24.1591   -4.2696 C.3       3 UNK        -0.2001 
     29 N          24.8674   22.8864   -2.2082 N.am      3 UNK        -0.4354 
     30 C          24.5195   21.9003   -1.3682 C.2       2 UNK         0.4964 
     31 O          23.3533   21.5766   -1.1393 O.2       2 UNK        -0.5047 
     32 CA         25.6530   21.1342   -0.6587 C.3       2 UNK         0.0288 
     33 CB         26.0018   19.8522   -1.4326 C.3       2 UNK        -0.2113 
     34 N          26.8698   21.9270   -0.4713 N.am      2 UNK        -0.4145 
     35 C          26.9727   22.9908    0.3392 C.2       1 UNK         0.5006 
     36 O          26.0672   23.3699    1.0835 O.2       1 UNK        -0.5103 
     37 C          28.0607   29.1906    1.2511 C.2       5 UNK         0.5055 
     38 O          28.2508   30.2224    1.8943 O.2       5 UNK        -0.5220 
     39 N          28.5361   29.0140    0.0120 N.am      6 UNK        -0.4450 
     40 CA         29.3905   29.9615   -0.7130 C.3       6 UNK         0.0367 
     41 CB         29.5538   29.4811   -2.1637 C.3       6 UNK        -0.1929 
     42 C          30.7675   30.1637   -0.0516 C.2       6 UNK         0.5070 
     43 O          31.3772   31.2194   -0.2192 O.2       6 UNK        -0.5237 
     44 N          31.2171   29.1574    0.7093 N.am      7 UNK        -0.4739 
     45 CA         32.4540   29.1627    1.4891 C.3       7 UNK         0.0276 
     46 CB         32.8598   27.7060    1.7686 C.3       7 UNK        -0.1927 
     47 C          32.3703   29.9649    2.8024 C.2       7 UNK         0.5013 
     48 O          33.3946   30.0848    3.4727 O.2       7 UNK        -0.5193 
     49 N          31.1911   30.5070    3.1584 N.am      8 UNK        -0.4253 
     50 CA         30.8977   31.2152    4.4180 C.3       8 UNK         0.0242 
     51 CB         29.4389   31.6990    4.4124 C.3       8 UNK        -0.2000 
     52 C          31.8393   32.3757    4.7982 C.2       8 UNK         0.4948 
     53 O          31.8628   32.7603    5.9681 O.2       8 UNK        -0.5275 
     54 N          32.6040   32.9005    3.8309 N.am      9 UNK        -0.4246 
     55 CA         33.6747   33.8749    4.0406 C.3       9 UNK         0.0261 
     56 CB         34.2245   34.3278    2.6783 C.3       9 UNK        -0.1959 
     57 C          34.8166   33.3584    4.9390 C.2       9 UNK         0.5033 
     58 O          35.3541   34.1516    5.7139 O.2       9 UNK        -0.5390 
     59 N          35.1589   32.0637    4.8407 N.am      10 UNK        -0.4215 
     60 CA         36.1889   31.4036    5.6458 C.3       10 UNK         0.0240 
     61 CB         37.5962   31.9612    5.3363 C.3       10 UNK        -0.1982 
     62 C          36.1607   29.8935    5.3829 C.2       10 UNK         0.4970 
     63 O          36.3349   29.4803    4.2348 O.2       10 UNK        -0.4916 
     64 N          36.0026   29.1036    6.4497 N.am      11 UNK        -0.4279 
     65 CA         36.0642   27.6325    6.4258 C.3       11 UNK         0.1003 
     66 C          36.7753   27.0144    7.6651 C.2       11 UNK         0.5709 
     67 N          37.4505   27.7950    8.5022 N.am      11 UNK        -0.7358 
     68 O          36.7419   25.8017    7.8617 O.2       11 UNK        -0.4999 
     69 C69        34.6928   26.9818    6.0930 C.3       12 UNK        -0.0954 
     70 S70        33.3801   27.3341    7.3178 S.3       12 UNK        -0.2268 
     71 C71        32.1213   28.1616    6.2940 C.3       12 UNK         0.0203 
     72 H72        29.1831   23.3204   -4.1086 H         1 UNK         0.0888 
     73 H73        29.5319   25.0262   -3.8149 H         1 UNK         0.0888 
     74 H74        30.5135   23.7792   -3.0421 H         1 UNK         0.0888 
     75 H75        30.0060   23.5382   -0.8939 H         1 UNK         0.3017 
     76 H76        28.0432   24.8184    0.4891 H         1 UNK         0.0873 
     77 H77        28.6490   23.3341    2.4152 H         1 UNK         0.0745 
     78 H78        29.5317   22.2871    1.3353 H         1 UNK         0.0745 
     79 H79        32.1659   23.9899    3.5182 H         1 UNK         0.0705 
     80 H80        30.6550   23.1676    3.7794 H         1 UNK         0.0705 
     81 H81        32.5773   26.0234    4.6296 H         1 UNK         0.1334 
     82 H82        29.4106   28.1671    6.5674 H         1 UNK         0.1417 
     83 H83        28.5196   24.7307    4.1722 H         1 UNK         0.1562 
     84 H84        27.1496   27.5445    6.2925 H         1 UNK         0.0748 
     85 H85        26.9794   25.8071    6.2806 H         1 UNK         0.0748 
     86 H86        27.8390   28.5889    3.9075 H         1 UNK         0.0940 
     87 H87        26.2210   29.0743    3.4831 H         1 UNK         0.0940 
     88 H88        27.9367   27.1498    1.8303 H         1 UNK         0.0703 
     89 H89        25.1886   27.9384    1.5481 H         1 UNK         0.3081 
     90 H90        23.9348   26.6901    0.0891 H         1 UNK         0.0719 
     91 H91        24.2120   29.0032   -0.9102 H         1 UNK         0.0809 
     92 H92        23.2170   27.9887   -1.9372 H         1 UNK         0.0809 
     93 H93        24.9003   28.2909   -2.3631 H         1 UNK         0.0809 
     94 H94        25.6480   25.3618   -1.7916 H         1 UNK         0.2990 
     95 H95        22.9713   23.2476   -3.0312 H         1 UNK         0.0690 
     96 H96        24.6133   23.2780   -4.8920 H         1 UNK         0.0788 
     97 H97        25.4034   24.6963   -4.2079 H         1 UNK         0.0788 
     98 H98        23.7500   24.8046   -4.7931 H         1 UNK         0.0788 
     99 H99        25.8483   23.1420   -2.2943 H         1 UNK         0.2993 
    100 H100       25.2832   20.8492    0.3288 H         1 UNK         0.0949 
    101 H101       25.1195   19.2241   -1.5644 H         1 UNK         0.0767 
    102 H102       26.3951   20.0742   -2.4255 H         1 UNK         0.0767 
    103 H103       26.7444   19.2567   -0.9010 H         1 UNK         0.0767 
    104 H104       27.6636   21.6904   -1.0486 H         1 UNK         0.3013 
    105 H105       28.2701   28.1554   -0.4680 H         1 UNK         0.3121 
    106 H106       28.8856   30.9297   -0.7229 H         1 UNK         0.0774 
    107 H107       30.1642   30.1782   -2.7395 H         1 UNK         0.0815 
    108 H108       30.0375   28.5046   -2.2134 H         1 UNK         0.0815 
    109 H109       28.5897   29.4035   -2.6667 H         1 UNK         0.0815 
    110 H110       30.6461   28.3274    0.7768 H         1 UNK         0.2987 
    111 H111       33.2408   29.6252    0.8889 H         1 UNK         0.0949 
    112 H112       33.0471   27.1615    0.8429 H         1 UNK         0.0806 
    113 H113       33.7737   27.6547    2.3627 H         1 UNK         0.0806 
    114 H114       32.0828   27.1733    2.3158 H         1 UNK         0.0806 
    115 H115       30.4025   30.3751    2.5367 H         1 UNK         0.3010 
    116 H116       30.9905   30.4819    5.2177 H         1 UNK         0.0829 
    117 H117       28.7450   30.8595    4.3944 H         1 UNK         0.0813 
    118 H118       29.2073   32.2775    5.3080 H         1 UNK         0.0813 
    119 H119       29.2273   32.3327    3.5503 H         1 UNK         0.0813 
    120 H120       32.5121   32.5175    2.9013 H         1 UNK         0.3038 
    121 H121       33.2345   34.7429    4.5362 H         1 UNK         0.0769 
    122 H122       34.6526   33.4953    2.1182 H         1 UNK         0.0811 
    123 H123       35.0103   35.0741    2.8042 H         1 UNK         0.0811 
    124 H124       33.4451   34.7809    2.0654 H         1 UNK         0.0811 
    125 H125       34.6365   31.4486    4.2179 H         1 UNK         0.3204 
    126 H126       35.9625   31.5851    6.6985 H         1 UNK         0.0748 
    127 H127       38.3656   31.3971    5.8655 H         1 UNK         0.0771 
    128 H128       37.8245   31.9034    4.2713 H         1 UNK         0.0771 
    129 H129       37.7010   33.0010    5.6441 H         1 UNK         0.0771 
    130 H130       35.8420   29.5143    7.3579 H         1 UNK         0.2980 
    131 H131       36.7352   27.3549    5.6107 H         1 UNK         0.0545 
    132 H132       37.5554   28.7816    8.3329 H         1 UNK         0.3459 
    133 H133       37.9100   27.3732    9.2941 H         1 UNK         0.3459 
    134 H134       34.7935   25.8990    6.0031 H         1 UNK         0.0616 
    135 H135       34.3781   27.3258    5.1072 H         1 UNK         0.0616 
    136 H136       32.6090   28.7365    5.5101 H         1 UNK         0.0634 
    137 H137       31.6111   28.8871    6.9288 H         1 UNK         0.0634 
@<TRIPOS>BOND
     1    1    2 1    
     2    1   72 1    
     3    1   73 1    
     4    1   74 1    
     5    2    3 2    
     6    2    4 am   BACKBONE|DICT|INTERRES
     7    4    5 1    
     8    4   75 1    
     9    5    6 1    
    10    5   35 1    
    11    5   76 1    
    12    6    7 1    
    13    6   77 1    
    14    6   78 1    
    15    7    8 1    
    16    8    9 1    
    17    8   79 1    
    18    8   80 1    
    19    9   10 ar   
    20    9   14 ar   
    21   10   11 ar   
    22   10   81 1    
    23   11   12 ar   
    24   11   71 1    
    25   12   13 ar   
    26   12   82 1    
    27   13   14 ar   
    28   13   15 1    
    29   14   83 1    
    30   15   16 1    
    31   15   84 1    
    32   15   85 1    
    33   16   17 1    
    34   17   18 1    
    35   17   86 1    
    36   17   87 1    
    37   18   19 1    
    38   18   37 1    
    39   18   88 1    
    40   19   20 am   BACKBONE|DICT|INTERRES
    41   19   89 1    
    42   20   21 2    
    43   20   22 1    
    44   22   23 1    
    45   22   24 1    
    46   22   90 1    
    47   23   91 1    
    48   23   92 1    
    49   23   93 1    
    50   24   25 am   BACKBONE|DICT|INTERRES
    51   24   94 1    
    52   25   26 2    
    53   25   27 1    
    54   27   28 1    
    55   27   29 1    
    56   27   95 1    
    57   28   96 1    
    58   28   97 1    
    59   28   98 1    
    60   29   30 am   BACKBONE|DICT|INTERRES
    61   29   99 1    
    62   30   31 2    
    63   30   32 1    
    64   32   33 1    
    65   32   34 1    
    66   32  100 1    
    67   33  101 1    
    68   33  102 1    
    69   33  103 1    
    70   34   35 am   BACKBONE|DICT|INTERRES
    71   34  104 1    
    72   35   36 2    
    73   37   38 2    
    74   37   39 am   BACKBONE|DICT|INTERRES
    75   39   40 1    
    76   39  105 1    
    77   40   41 1    
    78   40   42 1    
    79   40  106 1    
    80   41  107 1    
    81   41  108 1    
    82   41  109 1    
    83   42   43 2    
    84   42   44 am   BACKBONE|DICT|INTERRES
    85   44   45 1    
    86   44  110 1    
    87   45   46 1    
    88   45   47 1    
    89   45  111 1    
    90   46  112 1    
    91   46  113 1    
    92   46  114 1    
    93   47   48 2    
    94   47   49 am   BACKBONE|DICT|INTERRES
    95   49   50 1    
    96   49  115 1    
    97   50   51 1    
    98   50   52 1    
    99   50  116 1    
   100   51  117 1    
   101   51  118 1    
   102   51  119 1    
   103   52   53 2    
   104   52   54 am   BACKBONE|DICT|INTERRES
   105   54   55 1    
   106   54  120 1    
   107   55   56 1    
   108   55   57 1    
   109   55  121 1    
   110   56  122 1    
   111   56  123 1    
   112   56  124 1    
   113   57   58 2    
   114   57   59 am   BACKBONE|DICT|INTERRES
   115   59   60 1    
   116   59  125 1    
   117   60   61 1    
   118   60   62 1    
   119   60  126 1    
   120   61  127 1    
   121   61  128 1    
   122   61  129 1    
   123   62   63 2    
   124   62   64 am   BACKBONE|DICT|INTERRES
   125   64   65 1    
   126   64  130 1    
   127   65   66 1    
   128   65   69 1    
   129   65  131 1    
   130   66   67 am   BACKBONE|DICT|INTERRES
   131   66   68 2    
   132   67  132 1    
   133   67  133 1    
   134   69   70 1    
   135   69  134 1    
   136   69  135 1    
   137   70   71 1    
   138   71  136 1    
   139   71  137 1    
@<TRIPOS>SUBSTRUCTURE
     1 UNK         1 GROUP             0       ****    0 ROOT    
