@<TRIPOS>MOLECULE
3R136
137   139    1
SMALL
USER_CHARGES


@<TRIPOS>ATOM
      1 CA         27.0883   23.5797    2.9958 C.3       0 UNK        -0.1979 
      2 C          27.3869   22.3185    3.8074 C.2       0 UNK         0.4864 
      3 O          27.3880   22.3993    5.0348 O.2       0 UNK        -0.5359 
      4 N          27.6602   21.1434    3.2143 N.am      1 UNK        -0.4318 
      5 CA         27.6887   20.7761    1.7879 C.3       1 UNK         0.0824 
      6 C6         28.7468   21.5635    0.9586 C.3       12 UNK        -0.0944 
      7 S7         30.4493   21.1140    1.4318 S.3       12 UNK        -0.2672 
      8 C8         30.9429   22.4862    2.5317 C.3       12 UNK         0.0333 
      9 C9         31.0683   23.8514    1.8557 C.ar      12 UNK        -0.0807 
     10 C10        30.7830   25.0042    2.5960 C.ar      12 UNK        -0.0894 
     11 C11        30.9452   26.2728    2.0330 C.ar      12 UNK        -0.0804 
     12 C12        31.4074   26.3835    0.7196 C.ar      12 UNK        -0.0824 
     13 C13        31.6750   25.2457   -0.0450 C.ar      12 UNK        -0.0762 
     14 C14        31.5091   23.9827    0.5321 C.ar      12 UNK        -0.0782 
     15 C15        32.1755   25.3756   -1.4790 C.3       12 UNK         0.0230 
     16 S16        30.8651   25.9053   -2.6348 S.3       12 UNK        -0.2608 
     17 C17        30.9110   27.7248   -2.4534 C.3       12 UNK        -0.0989 
     18 CA         29.5756   28.3630   -1.9801 C.3       5 UNK         0.0716 
     19 N          28.9281   27.6118   -0.8946 N.am      5 UNK        -0.4135 
     20 C          27.6610   27.7825   -0.4986 C.2       4 UNK         0.5031 
     21 O          26.8935   28.6168   -0.9833 O.2       4 UNK        -0.5229 
     22 CA         27.1493   26.8474    0.6061 C.3       4 UNK         0.0329 
     23 CB         26.6049   27.6374    1.8084 C.3       4 UNK        -0.2001 
     24 N          26.0826   26.0139    0.0578 N.am      4 UNK        -0.4303 
     25 C          26.2970   24.8879   -0.6285 C.2       3 UNK         0.5044 
     26 O          27.4087   24.3752   -0.7829 O.2       3 UNK        -0.5152 
     27 CA         25.0685   24.2167   -1.2495 C.3       3 UNK         0.0319 
     28 CB         24.8224   24.7176   -2.6831 C.3       3 UNK        -0.2001 
     29 N          25.3296   22.7854   -1.2542 N.am      3 UNK        -0.4354 
     30 C          24.4198   21.8100   -1.1707 C.2       2 UNK         0.4964 
     31 O          23.2038   21.9916   -1.2385 O.2       2 UNK        -0.5047 
     32 CA         24.9672   20.3897   -0.9327 C.3       2 UNK         0.0288 
     33 CB         25.2150   19.6740   -2.2707 C.3       2 UNK        -0.2113 
     34 N          26.2019   20.3783   -0.1352 N.am      2 UNK        -0.4145 
     35 C          26.2799   20.7667    1.1476 C.2       1 UNK         0.5006 
     36 O          25.2908   21.0893    1.8111 O.2       1 UNK        -0.5103 
     37 C          29.8088   29.8521   -1.6349 C.2       5 UNK         0.5055 
     38 O          29.9475   30.6689   -2.5468 O.2       5 UNK        -0.5220 
     39 N          29.8760   30.1719   -0.3380 N.am      6 UNK        -0.4450 
     40 CA         30.1069   31.4961    0.2280 C.3       6 UNK         0.0367 
     41 CB         31.6183   31.8072    0.2259 C.3       6 UNK        -0.1929 
     42 C          29.5161   31.5137    1.6461 C.2       6 UNK         0.5070 
     43 O          28.8998   30.5299    2.0653 O.2       6 UNK        -0.5237 
     44 N          29.7139   32.6238    2.3670 N.am      7 UNK        -0.4739 
     45 CA         29.3805   32.7455    3.7881 C.3       7 UNK         0.0276 
     46 CB         29.4829   34.2221    4.2032 C.3       7 UNK        -0.1927 
     47 C          30.3212   31.8875    4.6502 C.2       7 UNK         0.5013 
     48 O          31.5072   31.7801    4.3293 O.2       7 UNK        -0.5193 
     49 N          29.8005   31.3447    5.7597 N.am      8 UNK        -0.4253 
     50 CA         30.5183   30.4530    6.6828 C.3       8 UNK         0.0242 
     51 CB         29.5791   30.0349    7.8250 C.3       8 UNK        -0.2000 
     52 C          31.8303   31.0282    7.2493 C.2       8 UNK         0.4948 
     53 O          32.7690   30.2679    7.4863 O.2       8 UNK        -0.5275 
     54 N          31.8892   32.3582    7.4077 N.am      9 UNK        -0.4246 
     55 CA         33.0863   33.1049    7.8012 C.3       9 UNK         0.0261 
     56 CB         32.6967   34.5626    8.0967 C.3       9 UNK        -0.1959 
     57 C          34.2230   33.0529    6.7612 C.2       9 UNK         0.5033 
     58 O          35.3864   33.1681    7.1496 O.2       9 UNK        -0.5390 
     59 N          33.8819   32.8819    5.4754 N.am      10 UNK        -0.4215 
     60 CA         34.8409   32.6823    4.3887 C.3       10 UNK         0.0240 
     61 CB         34.2740   33.2565    3.0787 C.3       10 UNK        -0.1982 
     62 C          35.1875   31.1947    4.2270 C.2       10 UNK         0.4970 
     63 O          36.3515   30.8769    3.9800 O.2       10 UNK        -0.4916 
     64 N          34.1834   30.3170    4.3663 N.am      11 UNK        -0.4279 
     65 CA         34.3371   28.8550    4.2792 C.3       11 UNK         0.1003 
     66 C          35.1979   28.2479    5.4208 C.2       11 UNK         0.5709 
     67 N          35.0654   28.7192    6.6547 N.am      11 UNK        -0.7358 
     68 O          35.9956   27.3443    5.1820 O.2       11 UNK        -0.4999 
     69 C69        32.9758   28.1201    4.1852 C.3       12 UNK        -0.0954 
     70 S70        31.9274   28.7540    2.8403 S.3       12 UNK        -0.2268 
     71 C71        30.5885   27.5230    2.8269 C.3       12 UNK         0.0203 
     72 H72        28.0061   24.1345    2.8082 H         1 UNK         0.0888 
     73 H73        26.6102   23.3743    2.0418 H         1 UNK         0.0888 
     74 H74        26.4162   24.2313    3.5535 H         1 UNK         0.0888 
     75 H75        27.8299   20.3598    3.8286 H         1 UNK         0.3017 
     76 H76        27.9890   19.7267    1.7786 H         1 UNK         0.0873 
     77 H77        28.6679   21.3344   -0.1047 H         1 UNK         0.0745 
     78 H78        28.6137   22.6420    1.0254 H         1 UNK         0.0745 
     79 H79        31.9113   22.2378    2.9674 H         1 UNK         0.0705 
     80 H80        30.2423   22.5357    3.3649 H         1 UNK         0.0705 
     81 H81        30.4397   24.9138    3.6178 H         1 UNK         0.1334 
     82 H82        31.5593   27.3662    0.2998 H         1 UNK         0.1417 
     83 H83        31.7398   23.1003   -0.0485 H         1 UNK         0.1562 
     84 H84        32.5636   24.4171   -1.8269 H         1 UNK         0.0748 
     85 H85        33.0189   26.0664   -1.5192 H         1 UNK         0.0748 
     86 H86        31.1801   28.1384   -3.4274 H         1 UNK         0.0940 
     87 H87        31.7364   28.0041   -1.7977 H         1 UNK         0.0940 
     88 H88        28.8864   28.3413   -2.8274 H         1 UNK         0.0703 
     89 H89        29.4643   26.8475   -0.5063 H         1 UNK         0.3081 
     90 H90        27.9680   26.2154    0.9593 H         1 UNK         0.0719 
     91 H91        25.7629   28.2725    1.5302 H         1 UNK         0.0809 
     92 H92        26.2725   26.9689    2.6027 H         1 UNK         0.0809 
     93 H93        27.3704   28.2871    2.2322 H         1 UNK         0.0809 
     94 H94        25.1476   26.3939    0.1008 H         1 UNK         0.2990 
     95 H95        24.1956   24.4262   -0.6271 H         1 UNK         0.0690 
     96 H96        23.9528   24.2338   -3.1283 H         1 UNK         0.0788 
     97 H97        25.6801   24.5245   -3.3288 H         1 UNK         0.0788 
     98 H98        24.6382   25.7926   -2.6957 H         1 UNK         0.0788 
     99 H99        26.3127   22.5565   -1.1748 H         1 UNK         0.2993 
    100 H100       24.2050   19.8343   -0.3815 H         1 UNK         0.0949 
    101 H101       24.3058   19.6496   -2.8733 H         1 UNK         0.0767 
    102 H102       25.9839   20.1738   -2.8614 H         1 UNK         0.0767 
    103 H103       25.5267   18.6407   -2.1166 H         1 UNK         0.0767 
    104 H104       27.0428   20.0850   -0.6117 H         1 UNK         0.3013 
    105 H105       29.6569   29.4725    0.3600 H         1 UNK         0.3121 
    106 H106       29.5745   32.2402   -0.3678 H         1 UNK         0.0774 
    107 H107       31.8184   32.8213    0.5719 H         1 UNK         0.0815 
    108 H108       32.1686   31.1259    0.8762 H         1 UNK         0.0815 
    109 H109       32.0411   31.7257   -0.7754 H         1 UNK         0.0815 
    110 H110       30.2521   33.3767    1.9643 H         1 UNK         0.2987 
    111 H111       28.3529   32.4044    3.9333 H         1 UNK         0.0949 
    112 H112       30.4965   34.6072    4.0807 H         1 UNK         0.0806 
    113 H113       28.8128   34.8475    3.6130 H         1 UNK         0.0806 
    114 H114       29.2080   34.3556    5.2503 H         1 UNK         0.0806 
    115 H115       28.8233   31.5026    5.9606 H         1 UNK         0.3010 
    116 H116       30.7802   29.5580    6.1163 H         1 UNK         0.0829 
    117 H117       28.6978   29.5168    7.4462 H         1 UNK         0.0813 
    118 H118       30.0811   29.3527    8.5129 H         1 UNK         0.0813 
    119 H119       29.2418   30.8939    8.4064 H         1 UNK         0.0813 
    120 H120       31.0646   32.8989    7.1922 H         1 UNK         0.3038 
    121 H121       33.4676   32.6587    8.7223 H         1 UNK         0.0769 
    122 H122       33.5642   35.1398    8.4202 H         1 UNK         0.0811 
    123 H123       31.9554   34.6226    8.8938 H         1 UNK         0.0811 
    124 H124       32.2863   35.0581    7.2158 H         1 UNK         0.0811 
    125 H125       32.9059   32.7284    5.2374 H         1 UNK         0.3204 
    126 H126       35.7637   33.2207    4.6159 H         1 UNK         0.0748 
    127 H127       35.0000   33.1657    2.2697 H         1 UNK         0.0771 
    128 H128       33.3699   32.7369    2.7606 H         1 UNK         0.0771 
    129 H129       34.0333   34.3147    3.1813 H         1 UNK         0.0771 
    130 H130       33.2407   30.6626    4.5035 H         1 UNK         0.2980 
    131 H131       34.8715   28.6552    3.3482 H         1 UNK         0.0545 
    132 H132       35.6271   28.3297    7.3942 H         1 UNK         0.3459 
    133 H133       34.3462   29.4037    6.8737 H         1 UNK         0.3459 
    134 H134       33.1334   27.0527    4.0187 H         1 UNK         0.0616 
    135 H135       32.4256   28.2098    5.1228 H         1 UNK         0.0616 
    136 H136       30.3103   27.2792    3.8534 H         1 UNK         0.0634 
    137 H137       29.7106   27.9777    2.3709 H         1 UNK         0.0634 
@<TRIPOS>BOND
     1    1    2 1    
     2    1   72 1    
     3    1   73 1    
     4    1   74 1    
     5    2    3 2    
     6    2    4 am   BACKBONE|DICT|INTERRES
     7    4    5 1    
     8    4   75 1    
     9    5    6 1    
    10    5   35 1    
    11    5   76 1    
    12    6    7 1    
    13    6   77 1    
    14    6   78 1    
    15    7    8 1    
    16    8    9 1    
    17    8   79 1    
    18    8   80 1    
    19    9   10 ar   
    20    9   14 ar   
    21   10   11 ar   
    22   10   81 1    
    23   11   12 ar   
    24   11   71 1    
    25   12   13 ar   
    26   12   82 1    
    27   13   14 ar   
    28   13   15 1    
    29   14   83 1    
    30   15   16 1    
    31   15   84 1    
    32   15   85 1    
    33   16   17 1    
    34   17   18 1    
    35   17   86 1    
    36   17   87 1    
    37   18   19 1    
    38   18   37 1    
    39   18   88 1    
    40   19   20 am   BACKBONE|DICT|INTERRES
    41   19   89 1    
    42   20   21 2    
    43   20   22 1    
    44   22   23 1    
    45   22   24 1    
    46   22   90 1    
    47   23   91 1    
    48   23   92 1    
    49   23   93 1    
    50   24   25 am   BACKBONE|DICT|INTERRES
    51   24   94 1    
    52   25   26 2    
    53   25   27 1    
    54   27   28 1    
    55   27   29 1    
    56   27   95 1    
    57   28   96 1    
    58   28   97 1    
    59   28   98 1    
    60   29   30 am   BACKBONE|DICT|INTERRES
    61   29   99 1    
    62   30   31 2    
    63   30   32 1    
    64   32   33 1    
    65   32   34 1    
    66   32  100 1    
    67   33  101 1    
    68   33  102 1    
    69   33  103 1    
    70   34   35 am   BACKBONE|DICT|INTERRES
    71   34  104 1    
    72   35   36 2    
    73   37   38 2    
    74   37   39 am   BACKBONE|DICT|INTERRES
    75   39   40 1    
    76   39  105 1    
    77   40   41 1    
    78   40   42 1    
    79   40  106 1    
    80   41  107 1    
    81   41  108 1    
    82   41  109 1    
    83   42   43 2    
    84   42   44 am   BACKBONE|DICT|INTERRES
    85   44   45 1    
    86   44  110 1    
    87   45   46 1    
    88   45   47 1    
    89   45  111 1    
    90   46  112 1    
    91   46  113 1    
    92   46  114 1    
    93   47   48 2    
    94   47   49 am   BACKBONE|DICT|INTERRES
    95   49   50 1    
    96   49  115 1    
    97   50   51 1    
    98   50   52 1    
    99   50  116 1    
   100   51  117 1    
   101   51  118 1    
   102   51  119 1    
   103   52   53 2    
   104   52   54 am   BACKBONE|DICT|INTERRES
   105   54   55 1    
   106   54  120 1    
   107   55   56 1    
   108   55   57 1    
   109   55  121 1    
   110   56  122 1    
   111   56  123 1    
   112   56  124 1    
   113   57   58 2    
   114   57   59 am   BACKBONE|DICT|INTERRES
   115   59   60 1    
   116   59  125 1    
   117   60   61 1    
   118   60   62 1    
   119   60  126 1    
   120   61  127 1    
   121   61  128 1    
   122   61  129 1    
   123   62   63 2    
   124   62   64 am   BACKBONE|DICT|INTERRES
   125   64   65 1    
   126   64  130 1    
   127   65   66 1    
   128   65   69 1    
   129   65  131 1    
   130   66   67 am   BACKBONE|DICT|INTERRES
   131   66   68 2    
   132   67  132 1    
   133   67  133 1    
   134   69   70 1    
   135   69  134 1    
   136   69  135 1    
   137   70   71 1    
   138   71  136 1    
   139   71  137 1    
@<TRIPOS>SUBSTRUCTURE
     1 UNK         1 GROUP             0       ****    0 ROOT    
