@<TRIPOS>MOLECULE
3R136
137   139    1
SMALL
USER_CHARGES


@<TRIPOS>ATOM
      1 CA         28.1719   23.8566   -2.7650 C.3       0 UNK        -0.1979 
      2 C          28.4726   23.6737   -1.2861 C.2       0 UNK         0.4864 
      3 O          27.7973   24.2649   -0.4440 O.2       0 UNK        -0.5359 
      4 N          29.4660   22.8402   -0.9523 N.am      1 UNK        -0.4318 
      5 CA         29.9401   22.6137    0.4209 C.3       1 UNK         0.0824 
      6 C6         31.2624   21.8034    0.4729 C.3       12 UNK        -0.0944 
      7 S7         32.5140   22.3460   -0.7434 S.3       12 UNK        -0.2672 
      8 C8         33.3798   23.6764    0.1509 C.3       12 UNK         0.0333 
      9 C9         32.4944   24.8932    0.3904 C.ar      12 UNK        -0.0807 
     10 C10        32.2609   25.3434    1.6929 C.ar      12 UNK        -0.0894 
     11 C11        31.4539   26.4621    1.9255 C.ar      12 UNK        -0.0804 
     12 C12        30.9072   27.1448    0.8362 C.ar      12 UNK        -0.0824 
     13 C13        31.1125   26.7000   -0.4731 C.ar      12 UNK        -0.0762 
     14 C14        31.9154   25.5744   -0.6865 C.ar      12 UNK        -0.0782 
     15 C15        30.5140   27.4480   -1.6633 C.3       12 UNK         0.0230 
     16 S16        28.6915   27.5897   -1.6023 S.3       12 UNK        -0.2608 
     17 C17        28.4551   29.1395   -0.6598 C.3       12 UNK        -0.0989 
     18 CA         27.5101   29.0290    0.5732 C.3       5 UNK         0.0716 
     19 N          27.6383   27.7465    1.2825 N.am      5 UNK        -0.4135 
     20 C          26.9487   27.3539    2.3629 C.2       4 UNK         0.5031 
     21 O          26.1457   28.0648    2.9689 O.2       4 UNK        -0.5229 
     22 CA         27.2017   25.9082    2.8168 C.3       4 UNK         0.0329 
     23 CB         26.9282   25.6931    4.3201 C.3       4 UNK        -0.2001 
     24 N          26.4531   24.9584    1.9895 N.am      4 UNK        -0.4303 
     25 C          25.1227   24.7977    1.8969 C.2       3 UNK         0.5044 
     26 O          24.2907   25.4372    2.5406 O.2       3 UNK        -0.5152 
     27 CA         24.6273   23.7158    0.9219 C.3       3 UNK         0.0319 
     28 CB         24.3453   24.3208   -0.4637 C.3       3 UNK        -0.2001 
     29 N          25.5837   22.6137    0.7918 N.am      3 UNK        -0.4354 
     30 C          25.6892   21.5948    1.6583 C.2       2 UNK         0.4964 
     31 O          24.9360   21.4338    2.6192 O.2       2 UNK        -0.5047 
     32 CA         26.8193   20.5765    1.4175 C.3       2 UNK         0.0288 
     33 CB         26.3039   19.3870    0.5907 C.3       2 UNK        -0.2113 
     34 N          27.9824   21.1612    0.7464 N.am      2 UNK        -0.4145 
     35 C          28.8715   21.9763    1.3344 C.2       1 UNK         0.5006 
     36 O          28.8545   22.2536    2.5340 O.2       1 UNK        -0.5103 
     37 C          27.7014   30.2853    1.4546 C.2       5 UNK         0.5055 
     38 O          27.1827   31.3447    1.1004 O.2       5 UNK        -0.5220 
     39 N          28.4953   30.1672    2.5328 N.am      6 UNK        -0.4450 
     40 CA         28.9240   31.1971    3.4965 C.3       6 UNK         0.0367 
     41 CB         27.7231   31.8451    4.2106 C.3       6 UNK        -0.1929 
     42 C          29.8656   32.2675    2.9117 C.2       6 UNK         0.5070 
     43 O          30.8513   32.6229    3.5586 O.2       6 UNK        -0.5237 
     44 N          29.5935   32.7181    1.6794 N.am      7 UNK        -0.4739 
     45 CA         30.3712   33.6931    0.9012 C.3       7 UNK         0.0276 
     46 CB         29.6279   33.9799   -0.4134 C.3       7 UNK        -0.1927 
     47 C          31.8280   33.2766    0.6145 C.2       7 UNK         0.5013 
     48 O          32.6477   34.1331    0.2830 O.2       7 UNK        -0.5193 
     49 N          32.1296   31.9816    0.7798 N.am      8 UNK        -0.4253 
     50 CA         33.4739   31.4025    0.7574 C.3       8 UNK         0.0242 
     51 CB         33.3436   29.8707    0.6736 C.3       8 UNK        -0.2000 
     52 C          34.3491   31.7990    1.9667 C.2       8 UNK         0.4948 
     53 O          35.5470   31.5152    1.9363 O.2       8 UNK        -0.5275 
     54 N          33.7507   32.4159    3.0019 N.am      9 UNK        -0.4246 
     55 CA         34.3506   32.7819    4.2926 C.3       9 UNK         0.0261 
     56 CB         35.4880   33.8125    4.1225 C.3       9 UNK        -0.1959 
     57 C          34.7650   31.5319    5.0901 C.2       9 UNK         0.5033 
     58 O          35.8861   31.4479    5.5964 O.2       9 UNK        -0.5390 
     59 N          33.8362   30.5748    5.1636 N.am      10 UNK        -0.4215 
     60 CA         33.9656   29.2704    5.8009 C.3       10 UNK         0.0240 
     61 CB         34.7519   28.3169    4.8760 C.3       10 UNK        -0.1982 
     62 C          32.5532   28.7544    6.1166 C.2       10 UNK         0.4970 
     63 O          31.5743   29.4483    5.8257 O.2       10 UNK        -0.4916 
     64 N          32.4743   27.5464    6.6887 N.am      11 UNK        -0.4279 
     65 CA         31.2359   26.8653    7.1161 C.3       11 UNK         0.1003 
     66 C          30.5625   27.4896    8.3785 C.2       11 UNK         0.5709 
     67 N          31.2302   28.3616    9.1253 N.am      11 UNK        -0.7358 
     68 O          29.4281   27.1548    8.7122 O.2       11 UNK        -0.4999 
     69 C69        30.2147   26.6213    5.9632 C.3       12 UNK        -0.0954 
     70 S70        30.8767   25.6634    4.5574 S.3       12 UNK        -0.2268 
     71 C71        31.1955   26.9798    3.3361 C.3       12 UNK         0.0203 
     72 H72        27.1309   23.6087   -2.9693 H         1 UNK         0.0888 
     73 H73        28.3376   24.8940   -3.0530 H         1 UNK         0.0888 
     74 H74        28.8026   23.2252   -3.3903 H         1 UNK         0.0888 
     75 H75        30.0079   22.3884   -1.6756 H         1 UNK         0.3017 
     76 H76        30.1353   23.6006    0.8432 H         1 UNK         0.0873 
     77 H77        31.6957   21.8485    1.4740 H         1 UNK         0.0745 
     78 H78        31.0675   20.7472    0.2766 H         1 UNK         0.0745 
     79 H79        33.7688   23.2800    1.0901 H         1 UNK         0.0705 
     80 H80        34.2472   23.9847   -0.4341 H         1 UNK         0.0705 
     81 H81        32.7088   24.8227    2.5280 H         1 UNK         0.1334 
     82 H82        30.3278   28.0348    1.0145 H         1 UNK         0.1417 
     83 H83        32.0966   25.2232   -1.6933 H         1 UNK         0.1562 
     84 H84        30.7679   26.9329   -2.5909 H         1 UNK         0.0748 
     85 H85        30.9686   28.4362   -1.7417 H         1 UNK         0.0748 
     86 H86        28.0544   29.8825   -1.3525 H         1 UNK         0.0940 
     87 H87        29.4341   29.5285   -0.3756 H         1 UNK         0.0940 
     88 H88        26.4819   29.0589    0.2068 H         1 UNK         0.0703 
     89 H89        28.2057   27.0576    0.8058 H         1 UNK         0.3081 
     90 H90        28.2591   25.6943    2.6497 H         1 UNK         0.0719 
     91 H91        27.4943   26.4056    4.9191 H         1 UNK         0.0809 
     92 H92        25.8778   25.8304    4.5762 H         1 UNK         0.0809 
     93 H93        27.2245   24.6923    4.6347 H         1 UNK         0.0809 
     94 H94        27.0129   24.4530    1.3077 H         1 UNK         0.2990 
     95 H95        23.6864   23.3213    1.3122 H         1 UNK         0.0690 
     96 H96        23.9642   23.5691   -1.1550 H         1 UNK         0.0788 
     97 H97        25.2382   24.7630   -0.9065 H         1 UNK         0.0788 
     98 H98        23.5942   25.1090   -0.3962 H         1 UNK         0.0788 
     99 H99        26.2754   22.7076    0.0606 H         1 UNK         0.2993 
    100 H100       27.1368   20.2026    2.3938 H         1 UNK         0.0949 
    101 H101       25.4519   18.9126    1.0799 H         1 UNK         0.0767 
    102 H102       25.9785   19.6952   -0.4038 H         1 UNK         0.0767 
    103 H103       27.0731   18.6235    0.4719 H         1 UNK         0.0767 
    104 H104       28.0819   20.9798   -0.2420 H         1 UNK         0.3013 
    105 H105       28.8570   29.2451    2.7215 H         1 UNK         0.3121 
    106 H106       29.5004   30.6640    4.2551 H         1 UNK         0.0774 
    107 H107       27.1071   32.4318    3.5285 H         1 UNK         0.0815 
    108 H108       28.0593   32.5174    5.0010 H         1 UNK         0.0815 
    109 H109       27.0858   31.0920    4.6741 H         1 UNK         0.0815 
    110 H110       28.7345   32.3752    1.2549 H         1 UNK         0.2987 
    111 H111       30.4142   34.6160    1.4833 H         1 UNK         0.0949 
    112 H112       29.5303   33.0820   -1.0251 H         1 UNK         0.0806 
    113 H113       28.6267   34.3689   -0.2267 H         1 UNK         0.0806 
    114 H114       30.1568   34.7255   -1.0091 H         1 UNK         0.0806 
    115 H115       31.3768   31.3667    1.0479 H         1 UNK         0.3010 
    116 H116       33.9819   31.7580   -0.1416 H         1 UNK         0.0829 
    117 H117       34.3241   29.3975    0.6038 H         1 UNK         0.0813 
    118 H118       32.8486   29.4575    1.5533 H         1 UNK         0.0813 
    119 H119       32.7787   29.5650   -0.2071 H         1 UNK         0.0813 
    120 H120       32.7485   32.5739    2.9448 H         1 UNK         0.3038 
    121 H121       33.5589   33.2636    4.8689 H         1 UNK         0.0769 
    122 H122       36.3525   33.3882    3.6115 H         1 UNK         0.0811 
    123 H123       35.8326   34.1724    5.0927 H         1 UNK         0.0811 
    124 H124       35.1543   34.6806    3.5541 H         1 UNK         0.0811 
    125 H125       32.9066   30.7580    4.8033 H         1 UNK         0.3204 
    126 H126       34.4970   29.3855    6.7478 H         1 UNK         0.0748 
    127 H127       34.8393   27.3169    5.3015 H         1 UNK         0.0771 
    128 H128       34.2796   28.2198    3.8983 H         1 UNK         0.0771 
    129 H129       35.7669   28.6795    4.7117 H         1 UNK         0.0771 
    130 H130       33.3287   27.0498    6.8947 H         1 UNK         0.2980 
    131 H131       31.5638   25.8815    7.4533 H         1 UNK         0.0545 
    132 H132       30.7877   28.7473    9.9446 H         1 UNK         0.3459 
    133 H133       32.1672   28.6366    8.8808 H         1 UNK         0.3459 
    134 H134       29.3699   26.0443    6.3422 H         1 UNK         0.0616 
    135 H135       29.7897   27.5611    5.6092 H         1 UNK         0.0616 
    136 H136       30.3460   27.6632    3.3350 H         1 UNK         0.0634 
    137 H137       32.0620   27.5582    3.6458 H         1 UNK         0.0634 
@<TRIPOS>BOND
     1    1    2 1    
     2    1   72 1    
     3    1   73 1    
     4    1   74 1    
     5    2    3 2    
     6    2    4 am   BACKBONE|DICT|INTERRES
     7    4    5 1    
     8    4   75 1    
     9    5    6 1    
    10    5   35 1    
    11    5   76 1    
    12    6    7 1    
    13    6   77 1    
    14    6   78 1    
    15    7    8 1    
    16    8    9 1    
    17    8   79 1    
    18    8   80 1    
    19    9   10 ar   
    20    9   14 ar   
    21   10   11 ar   
    22   10   81 1    
    23   11   12 ar   
    24   11   71 1    
    25   12   13 ar   
    26   12   82 1    
    27   13   14 ar   
    28   13   15 1    
    29   14   83 1    
    30   15   16 1    
    31   15   84 1    
    32   15   85 1    
    33   16   17 1    
    34   17   18 1    
    35   17   86 1    
    36   17   87 1    
    37   18   19 1    
    38   18   37 1    
    39   18   88 1    
    40   19   20 am   BACKBONE|DICT|INTERRES
    41   19   89 1    
    42   20   21 2    
    43   20   22 1    
    44   22   23 1    
    45   22   24 1    
    46   22   90 1    
    47   23   91 1    
    48   23   92 1    
    49   23   93 1    
    50   24   25 am   BACKBONE|DICT|INTERRES
    51   24   94 1    
    52   25   26 2    
    53   25   27 1    
    54   27   28 1    
    55   27   29 1    
    56   27   95 1    
    57   28   96 1    
    58   28   97 1    
    59   28   98 1    
    60   29   30 am   BACKBONE|DICT|INTERRES
    61   29   99 1    
    62   30   31 2    
    63   30   32 1    
    64   32   33 1    
    65   32   34 1    
    66   32  100 1    
    67   33  101 1    
    68   33  102 1    
    69   33  103 1    
    70   34   35 am   BACKBONE|DICT|INTERRES
    71   34  104 1    
    72   35   36 2    
    73   37   38 2    
    74   37   39 am   BACKBONE|DICT|INTERRES
    75   39   40 1    
    76   39  105 1    
    77   40   41 1    
    78   40   42 1    
    79   40  106 1    
    80   41  107 1    
    81   41  108 1    
    82   41  109 1    
    83   42   43 2    
    84   42   44 am   BACKBONE|DICT|INTERRES
    85   44   45 1    
    86   44  110 1    
    87   45   46 1    
    88   45   47 1    
    89   45  111 1    
    90   46  112 1    
    91   46  113 1    
    92   46  114 1    
    93   47   48 2    
    94   47   49 am   BACKBONE|DICT|INTERRES
    95   49   50 1    
    96   49  115 1    
    97   50   51 1    
    98   50   52 1    
    99   50  116 1    
   100   51  117 1    
   101   51  118 1    
   102   51  119 1    
   103   52   53 2    
   104   52   54 am   BACKBONE|DICT|INTERRES
   105   54   55 1    
   106   54  120 1    
   107   55   56 1    
   108   55   57 1    
   109   55  121 1    
   110   56  122 1    
   111   56  123 1    
   112   56  124 1    
   113   57   58 2    
   114   57   59 am   BACKBONE|DICT|INTERRES
   115   59   60 1    
   116   59  125 1    
   117   60   61 1    
   118   60   62 1    
   119   60  126 1    
   120   61  127 1    
   121   61  128 1    
   122   61  129 1    
   123   62   63 2    
   124   62   64 am   BACKBONE|DICT|INTERRES
   125   64   65 1    
   126   64  130 1    
   127   65   66 1    
   128   65   69 1    
   129   65  131 1    
   130   66   67 am   BACKBONE|DICT|INTERRES
   131   66   68 2    
   132   67  132 1    
   133   67  133 1    
   134   69   70 1    
   135   69  134 1    
   136   69  135 1    
   137   70   71 1    
   138   71  136 1    
   139   71  137 1    
@<TRIPOS>SUBSTRUCTURE
     1 UNK         1 GROUP             0       ****    0 ROOT    
