@<TRIPOS>MOLECULE
3R136
137   139    1
SMALL
USER_CHARGES


@<TRIPOS>ATOM
      1 CA         28.2752   26.1560    7.3051 C.3       0 UNK        -0.1979 
      2 C          27.8696   24.9314    6.4987 C.2       0 UNK         0.4864 
      3 O          27.3522   23.9679    7.0663 O.2       0 UNK        -0.5359 
      4 N          28.0945   24.9644    5.1828 N.am      1 UNK        -0.4318 
      5 CA         27.7846   23.8959    4.2358 C.3       1 UNK         0.0824 
      6 C6         28.8065   22.7200    4.2725 C.3       12 UNK        -0.0944 
      7 S7         30.5646   23.2204    4.1879 S.3       12 UNK        -0.2672 
      8 C8         30.9282   23.0683    2.4119 C.3       12 UNK         0.0333 
      9 C9         31.9329   24.1181    1.9555 C.ar      12 UNK        -0.0807 
     10 C10        33.3060   23.8619    2.0290 C.ar      12 UNK        -0.0894 
     11 C11        34.2322   24.8034    1.5672 C.ar      12 UNK        -0.0804 
     12 C12        33.7702   26.0082    1.0254 C.ar      12 UNK        -0.0824 
     13 C13        32.4020   26.2861    0.9644 C.ar      12 UNK        -0.0762 
     14 C14        31.4886   25.3383    1.4342 C.ar      12 UNK        -0.0782 
     15 C15        31.9227   27.6223    0.4147 C.3       12 UNK         0.0230 
     16 S16        31.5757   27.5321   -1.3726 S.3       12 UNK        -0.2608 
     17 C17        29.7971   27.1137   -1.3877 C.3       12 UNK        -0.0989 
     18 CA         28.9098   28.1743   -2.0993 C.3       5 UNK         0.0716 
     19 N          27.6232   27.5855   -2.4674 N.am      5 UNK        -0.4135 
     20 C          26.9133   27.8688   -3.5667 C.2       4 UNK         0.5031 
     21 O          27.3159   28.6077   -4.4668 O.2       4 UNK        -0.5229 
     22 CA         25.5253   27.2089   -3.7098 C.3       4 UNK         0.0329 
     23 CB         25.5875   26.0488   -4.7174 C.3       4 UNK        -0.2001 
     24 N          24.9847   26.7068   -2.4431 N.am      4 UNK        -0.4303 
     25 C          24.4279   27.4689   -1.4902 C.2       3 UNK         0.5044 
     26 O          24.1885   28.6684   -1.6310 O.2       3 UNK        -0.5152 
     27 CA         24.0842   26.7869   -0.1467 C.3       3 UNK         0.0319 
     28 CB         22.5771   26.4933   -0.0653 C.3       3 UNK        -0.2001 
     29 N          24.8300   25.5511    0.1411 N.am      3 UNK        -0.4354 
     30 C          26.1649   25.4612    0.2227 C.2       2 UNK         0.4964 
     31 O          26.9162   26.4147    0.0289 O.2       2 UNK        -0.5047 
     32 CA         26.7538   24.0688    0.5099 C.3       2 UNK         0.0288 
     33 CB         28.0593   23.8343   -0.2779 C.3       2 UNK        -0.2113 
     34 N          26.9611   23.7993    1.9393 N.am      2 UNK        -0.4145 
     35 C          27.6566   24.5187    2.8360 C.2       1 UNK         0.5006 
     36 O          28.2081   25.5983    2.6074 O.2       1 UNK        -0.5103 
     37 C          28.6612   29.4184   -1.2182 C.2       5 UNK         0.5055 
     38 O          27.5242   29.7016   -0.8276 O.2       5 UNK        -0.5220 
     39 N          29.7418   30.1321   -0.8811 N.am      6 UNK        -0.4450 
     40 CA         29.7676   31.2000    0.1195 C.3       6 UNK         0.0367 
     41 CB         31.0386   32.0455   -0.0827 C.3       6 UNK        -0.1929 
     42 C          29.6851   30.5983    1.5350 C.2       6 UNK         0.5070 
     43 O          30.6802   30.5857    2.2589 O.2       6 UNK        -0.5237 
     44 N          28.5046   30.0707    1.8867 N.am      7 UNK        -0.4739 
     45 CA         28.2263   29.2868    3.0971 C.3       7 UNK         0.0276 
     46 CB         26.7584   28.8331    3.0779 C.3       7 UNK        -0.1927 
     47 C          28.5636   29.9854    4.4286 C.2       7 UNK         0.5013 
     48 O          28.8281   29.3024    5.4174 O.2       7 UNK        -0.5193 
     49 N          28.5830   31.3252    4.4269 N.am      8 UNK        -0.4253 
     50 CA         29.0194   32.1623    5.5474 C.3       8 UNK         0.0242 
     51 CB         28.6023   33.6169    5.2739 C.3       8 UNK        -0.2000 
     52 C          30.5330   32.0841    5.8368 C.2       8 UNK         0.4948 
     53 O          30.9429   32.4440    6.9411 O.2       8 UNK        -0.5275 
     54 N          31.3333   31.6290    4.8633 N.am      9 UNK        -0.4246 
     55 CA         32.7839   31.4687    4.9569 C.3       9 UNK         0.0261 
     56 CB         33.4717   32.6315    4.2163 C.3       9 UNK        -0.1959 
     57 C          33.1787   30.0898    4.4051 C.2       9 UNK         0.5033 
     58 O          34.1068   29.9843    3.5997 O.2       9 UNK        -0.5390 
     59 N          32.4502   29.0510    4.8365 N.am      10 UNK        -0.4215 
     60 CA         32.5577   27.6680    4.3660 C.3       10 UNK         0.0240 
     61 CB         31.2676   26.9220    4.7421 C.3       10 UNK        -0.1982 
     62 C          33.8206   26.9328    4.8594 C.2       10 UNK         0.4970 
     63 O          33.7110   25.9246    5.5595 O.2       10 UNK        -0.4916 
     64 N          34.9955   27.4622    4.4987 N.am      11 UNK        -0.4279 
     65 CA         36.3320   26.9249    4.8111 C.3       11 UNK         0.1003 
     66 C          36.6823   26.8697    6.3319 C.2       11 UNK         0.5709 
     67 N          36.0009   27.6156    7.1940 N.am      11 UNK        -0.7358 
     68 O          37.6110   26.1750    6.7389 O.2       11 UNK        -0.4999 
     69 C69        36.6264   25.5915    4.0608 C.3       12 UNK        -0.0954 
     70 S70        36.7521   25.8376    2.2576 S.3       12 UNK        -0.2268 
     71 C71        35.7238   24.4851    1.5935 C.3       12 UNK         0.0203 
     72 H72        29.0272   25.8856    8.0457 H         1 UNK         0.0888 
     73 H73        27.4116   26.5664    7.8274 H         1 UNK         0.0888 
     74 H74        28.6903   26.9394    6.6720 H         1 UNK         0.0888 
     75 H75        28.4915   25.7832    4.7382 H         1 UNK         0.3017 
     76 H76        26.7985   23.5029    4.4938 H         1 UNK         0.0873 
     77 H77        28.5960   21.9880    3.4906 H         1 UNK         0.0745 
     78 H78        28.6791   22.1765    5.2098 H         1 UNK         0.0745 
     79 H79        30.0124   23.1640    1.8299 H         1 UNK         0.0705 
     80 H80        31.3095   22.0662    2.2106 H         1 UNK         0.0705 
     81 H81        33.6508   22.9194    2.4321 H         1 UNK         0.1334 
     82 H82        34.4795   26.7344    0.6524 H         1 UNK         0.1417 
     83 H83        30.4306   25.5519    1.3933 H         1 UNK         0.1562 
     84 H84        32.6847   28.3851    0.5841 H         1 UNK         0.0748 
     85 H85        31.0420   27.9612    0.9621 H         1 UNK         0.0748 
     86 H86        29.4400   26.9237   -0.3741 H         1 UNK         0.0940 
     87 H87        29.7131   26.1575   -1.9070 H         1 UNK         0.0940 
     88 H88        29.4196   28.5041   -3.0071 H         1 UNK         0.0703 
     89 H89        27.1769   27.0669   -1.7158 H         1 UNK         0.3081 
     90 H90        24.8434   27.9655   -4.1039 H         1 UNK         0.0719 
     91 H91        25.9535   26.3923   -5.6860 H         1 UNK         0.0809 
     92 H92        26.2554   25.2550   -4.3802 H         1 UNK         0.0809 
     93 H93        24.6020   25.6127   -4.8826 H         1 UNK         0.0809 
     94 H94        25.1162   25.7252   -2.2491 H         1 UNK         0.2990 
     95 H95        24.3339   27.5020    0.6402 H         1 UNK         0.0690 
     96 H96        22.2973   26.1179    0.9192 H         1 UNK         0.0788 
     97 H97        22.2692   25.7563   -0.8081 H         1 UNK         0.0788 
     98 H98        21.9923   27.3974   -0.2418 H         1 UNK         0.0788 
     99 H99        24.2757   24.7225    0.3049 H         1 UNK         0.2993 
    100 H100       26.0317   23.3306    0.1570 H         1 UNK         0.0949 
    101 H101       28.8528   24.5086    0.0408 H         1 UNK         0.0767 
    102 H102       28.4188   22.8128   -0.1547 H         1 UNK         0.0767 
    103 H103       27.9069   23.9972   -1.3456 H         1 UNK         0.0767 
    104 H104       26.5326   22.9449    2.2680 H         1 UNK         0.3013 
    105 H105       30.6402   29.8038   -1.2098 H         1 UNK         0.3121 
    106 H106       28.9014   31.8497   -0.0239 H         1 UNK         0.0774 
    107 H107       31.0897   32.8523    0.6497 H         1 UNK         0.0815 
    108 H108       31.9453   31.4490    0.0279 H         1 UNK         0.0815 
    109 H109       31.0570   32.5044   -1.0713 H         1 UNK         0.0815 
    110 H110       27.7801   30.0687    1.1749 H         1 UNK         0.2987 
    111 H111       28.8474   28.3928    3.0340 H         1 UNK         0.0949 
    112 H112       26.5452   28.2297    2.1946 H         1 UNK         0.0806 
    113 H113       26.5287   28.2166    3.9481 H         1 UNK         0.0806 
    114 H114       26.0722   29.6807    3.0832 H         1 UNK         0.0806 
    115 H115       28.3515   31.7969    3.5649 H         1 UNK         0.3010 
    116 H116       28.5006   31.8192    6.4451 H         1 UNK         0.0829 
    117 H117       29.0822   34.0130    4.3780 H         1 UNK         0.0813 
    118 H118       28.8803   34.2658    6.1058 H         1 UNK         0.0813 
    119 H119       27.5232   33.7040    5.1454 H         1 UNK         0.0813 
    120 H120       30.9254   31.3149    3.9834 H         1 UNK         0.3038 
    121 H121       33.1031   31.4879    6.0010 H         1 UNK         0.0769 
    122 H122       33.1857   33.5946    4.6392 H         1 UNK         0.0811 
    123 H123       33.2116   32.6392    3.1568 H         1 UNK         0.0811 
    124 H124       34.5574   32.5556    4.2880 H         1 UNK         0.0811 
    125 H125       31.7125   29.2373    5.5013 H         1 UNK         0.3204 
    126 H126       32.6169   27.6970    3.2785 H         1 UNK         0.0748 
    127 H127       31.1193   26.8805    5.8216 H         1 UNK         0.0771 
    128 H128       30.3929   27.3867    4.2955 H         1 UNK         0.0771 
    129 H129       31.3012   25.8990    4.3748 H         1 UNK         0.0771 
    130 H130       34.9704   28.3341    3.9761 H         1 UNK         0.2980 
    131 H131       37.0291   27.6680    4.4227 H         1 UNK         0.0545 
    132 H132       36.2423   27.5837    8.1718 H         1 UNK         0.3459 
    133 H133       35.2405   28.1945    6.8779 H         1 UNK         0.3459 
    134 H134       35.8667   24.8423    4.2882 H         1 UNK         0.0616 
    135 H135       37.5783   25.1627    4.3775 H         1 UNK         0.0616 
    136 H136       35.9229   23.5743    2.1604 H         1 UNK         0.0634 
    137 H137       36.0444   24.2837    0.5707 H         1 UNK         0.0634 
@<TRIPOS>BOND
     1    1    2 1    
     2    1   72 1    
     3    1   73 1    
     4    1   74 1    
     5    2    3 2    
     6    2    4 am   BACKBONE|DICT|INTERRES
     7    4    5 1    
     8    4   75 1    
     9    5    6 1    
    10    5   35 1    
    11    5   76 1    
    12    6    7 1    
    13    6   77 1    
    14    6   78 1    
    15    7    8 1    
    16    8    9 1    
    17    8   79 1    
    18    8   80 1    
    19    9   10 ar   
    20    9   14 ar   
    21   10   11 ar   
    22   10   81 1    
    23   11   12 ar   
    24   11   71 1    
    25   12   13 ar   
    26   12   82 1    
    27   13   14 ar   
    28   13   15 1    
    29   14   83 1    
    30   15   16 1    
    31   15   84 1    
    32   15   85 1    
    33   16   17 1    
    34   17   18 1    
    35   17   86 1    
    36   17   87 1    
    37   18   19 1    
    38   18   37 1    
    39   18   88 1    
    40   19   20 am   BACKBONE|DICT|INTERRES
    41   19   89 1    
    42   20   21 2    
    43   20   22 1    
    44   22   23 1    
    45   22   24 1    
    46   22   90 1    
    47   23   91 1    
    48   23   92 1    
    49   23   93 1    
    50   24   25 am   BACKBONE|DICT|INTERRES
    51   24   94 1    
    52   25   26 2    
    53   25   27 1    
    54   27   28 1    
    55   27   29 1    
    56   27   95 1    
    57   28   96 1    
    58   28   97 1    
    59   28   98 1    
    60   29   30 am   BACKBONE|DICT|INTERRES
    61   29   99 1    
    62   30   31 2    
    63   30   32 1    
    64   32   33 1    
    65   32   34 1    
    66   32  100 1    
    67   33  101 1    
    68   33  102 1    
    69   33  103 1    
    70   34   35 am   BACKBONE|DICT|INTERRES
    71   34  104 1    
    72   35   36 2    
    73   37   38 2    
    74   37   39 am   BACKBONE|DICT|INTERRES
    75   39   40 1    
    76   39  105 1    
    77   40   41 1    
    78   40   42 1    
    79   40  106 1    
    80   41  107 1    
    81   41  108 1    
    82   41  109 1    
    83   42   43 2    
    84   42   44 am   BACKBONE|DICT|INTERRES
    85   44   45 1    
    86   44  110 1    
    87   45   46 1    
    88   45   47 1    
    89   45  111 1    
    90   46  112 1    
    91   46  113 1    
    92   46  114 1    
    93   47   48 2    
    94   47   49 am   BACKBONE|DICT|INTERRES
    95   49   50 1    
    96   49  115 1    
    97   50   51 1    
    98   50   52 1    
    99   50  116 1    
   100   51  117 1    
   101   51  118 1    
   102   51  119 1    
   103   52   53 2    
   104   52   54 am   BACKBONE|DICT|INTERRES
   105   54   55 1    
   106   54  120 1    
   107   55   56 1    
   108   55   57 1    
   109   55  121 1    
   110   56  122 1    
   111   56  123 1    
   112   56  124 1    
   113   57   58 2    
   114   57   59 am   BACKBONE|DICT|INTERRES
   115   59   60 1    
   116   59  125 1    
   117   60   61 1    
   118   60   62 1    
   119   60  126 1    
   120   61  127 1    
   121   61  128 1    
   122   61  129 1    
   123   62   63 2    
   124   62   64 am   BACKBONE|DICT|INTERRES
   125   64   65 1    
   126   64  130 1    
   127   65   66 1    
   128   65   69 1    
   129   65  131 1    
   130   66   67 am   BACKBONE|DICT|INTERRES
   131   66   68 2    
   132   67  132 1    
   133   67  133 1    
   134   69   70 1    
   135   69  134 1    
   136   69  135 1    
   137   70   71 1    
   138   71  136 1    
   139   71  137 1    
@<TRIPOS>SUBSTRUCTURE
     1 UNK         1 GROUP             0       ****    0 ROOT    
