@<TRIPOS>MOLECULE
3R136
137   139    1
SMALL
USER_CHARGES


@<TRIPOS>ATOM
      1 CA         30.1931   22.8200   -3.0454 C.3       0 UNK        -0.1979 
      2 C          29.6671   23.4178   -1.7503 C.2       0 UNK         0.4864 
      3 O          29.2245   24.5681   -1.7480 O.2       0 UNK        -0.5359 
      4 N          29.6983   22.6410   -0.6560 N.am      1 UNK        -0.4318 
      5 CA         29.2984   23.0307    0.7058 C.3       1 UNK         0.0824 
      6 C6         29.4249   21.8613    1.7144 C.3       12 UNK        -0.0944 
      7 S7         31.1104   21.1667    1.7807 S.3       12 UNK        -0.2672 
      8 C8         31.6469   21.6262    3.4630 C.3       12 UNK         0.0333 
      9 C9         31.7570   23.1334    3.6590 C.ar      12 UNK        -0.0807 
     10 C10        32.5770   23.8937    2.8184 C.ar      12 UNK        -0.0894 
     11 C11        32.6937   25.2737    2.9983 C.ar      12 UNK        -0.0804 
     12 C12        31.9706   25.8945    4.0193 C.ar      12 UNK        -0.0824 
     13 C13        31.1665   25.1479    4.8839 C.ar      12 UNK        -0.0762 
     14 C14        31.0648   23.7644    4.7001 C.ar      12 UNK        -0.0782 
     15 C15        30.4409   25.8486    6.0298 C.3       12 UNK         0.0230 
     16 S16        28.6195   25.6909    5.9913 S.3       12 UNK        -0.2608 
     17 C17        28.2013   25.8468    4.2243 C.3       12 UNK        -0.0989 
     18 CA         28.4888   27.2394    3.6075 C.3       5 UNK         0.0716 
     19 N          28.8284   27.1273    2.1877 N.am      5 UNK        -0.4135 
     20 C          29.4913   28.0636    1.4986 C.2       4 UNK         0.5031 
     21 O          29.9209   29.1030    2.0025 O.2       4 UNK        -0.5229 
     22 CA         29.7101   27.8143   -0.0025 C.3       4 UNK         0.0329 
     23 CB         31.0123   27.0383   -0.2357 C.3       4 UNK        -0.2001 
     24 N          28.6133   27.1182   -0.6805 N.am      4 UNK        -0.4303 
     25 C          27.3793   27.6138   -0.8458 C.2       3 UNK         0.5044 
     26 O          26.9760   28.6360   -0.2958 O.2       3 UNK        -0.5152 
     27 CA         26.4387   26.8423   -1.7799 C.3       3 UNK         0.0319 
     28 CB         26.9246   26.9180   -3.2372 C.3       3 UNK        -0.2001 
     29 N          26.3441   25.4465   -1.3656 N.am      3 UNK        -0.4354 
     30 C          25.3850   24.9594   -0.5663 C.2       2 UNK         0.4964 
     31 O          24.4098   25.6084   -0.1871 O.2       2 UNK        -0.5047 
     32 CA         25.5444   23.5045   -0.0840 C.3       2 UNK         0.0288 
     33 CB         24.7664   22.5463   -1.0006 C.3       2 UNK        -0.2113 
     34 N          26.9356   23.0504    0.0181 N.am      2 UNK        -0.4145 
     35 C          27.8797   23.6277    0.7770 C.2       1 UNK         0.5006 
     36 O          27.6810   24.6241    1.4701 O.2       1 UNK        -0.5103 
     37 C          27.3249   28.2280    3.8195 C.2       5 UNK         0.5055 
     38 O          27.3542   29.0033    4.7754 O.2       5 UNK        -0.5220 
     39 N          26.3450   28.2144    2.9020 N.am      6 UNK        -0.4450 
     40 CA         25.1970   29.1251    2.8912 C.3       6 UNK         0.0367 
     41 CB         24.1271   28.5931    1.9238 C.3       6 UNK        -0.1929 
     42 C          25.5949   30.5659    2.5290 C.2       6 UNK         0.5070 
     43 O          25.1083   31.5067    3.1561 O.2       6 UNK        -0.5237 
     44 N          26.4918   30.7111    1.5440 N.am      7 UNK        -0.4739 
     45 CA         27.0724   31.9857    1.1104 C.3       7 UNK         0.0276 
     46 CB         27.7318   31.7888   -0.2648 C.3       7 UNK        -0.1927 
     47 C          28.0914   32.5717    2.1050 C.2       7 UNK         0.5013 
     48 O          28.4225   33.7519    1.9859 O.2       7 UNK        -0.5193 
     49 N          28.5697   31.7425    3.0451 N.am      8 UNK        -0.4253 
     50 CA         29.5913   32.0228    4.0567 C.3       8 UNK         0.0242 
     51 CB         29.1056   33.0878    5.0629 C.3       8 UNK        -0.2000 
     52 C          30.9496   32.3595    3.4160 C.2       8 UNK         0.4948 
     53 O          31.5025   33.4352    3.6541 O.2       8 UNK        -0.5275 
     54 N          31.4560   31.4135    2.6143 N.am      9 UNK        -0.4246 
     55 CA         32.7581   31.4656    1.9462 C.3       9 UNK         0.0261 
     56 CB         32.9329   30.2391    1.0362 C.3       9 UNK        -0.1959 
     57 C          33.9885   31.6648    2.8640 C.2       9 UNK         0.5033 
     58 O          34.8343   32.4834    2.5073 O.2       9 UNK        -0.5390 
     59 N          34.1506   30.9846    4.0124 N.am      10 UNK        -0.4215 
     60 CA         33.3605   29.8935    4.5947 C.3       10 UNK         0.0240 
     61 CB         32.6581   30.4027    5.8714 C.3       10 UNK        -0.1982 
     62 C          34.2483   28.6730    4.9052 C.2       10 UNK         0.4970 
     63 O          33.9406   27.9360    5.8421 O.2       10 UNK        -0.4916 
     64 N          35.3307   28.4803    4.1348 N.am      11 UNK        -0.4279 
     65 CA         36.3205   27.3946    4.2971 C.3       11 UNK         0.1003 
     66 C          37.1471   27.4561    5.6224 C.2       11 UNK         0.5709 
     67 N          37.1897   28.5813    6.3265 N.am      11 UNK        -0.7358 
     68 O          37.7984   26.4858    6.0032 O.2       11 UNK        -0.4999 
     69 C69        35.7199   25.9819    4.0195 C.3       12 UNK        -0.0954 
     70 S70        35.3623   25.6931    2.2538 S.3       12 UNK        -0.2268 
     71 C71        33.5947   26.0992    2.0908 C.3       12 UNK         0.0203 
     72 H72        29.4072   22.8124   -3.8000 H         1 UNK         0.0888 
     73 H73        31.0219   23.4185   -3.4222 H         1 UNK         0.0888 
     74 H74        30.5456   21.7977   -2.9100 H         1 UNK         0.0888 
     75 H75        30.0865   21.7110   -0.7298 H         1 UNK         0.3017 
     76 H76        29.9856   23.8197    1.0187 H         1 UNK         0.0873 
     77 H77        28.7413   21.0516    1.4516 H         1 UNK         0.0745 
     78 H78        29.1343   22.1869    2.7156 H         1 UNK         0.0745 
     79 H79        32.6222   21.1768    3.6542 H         1 UNK         0.0705 
     80 H80        30.9589   21.1856    4.1864 H         1 UNK         0.0705 
     81 H81        33.1301   23.4094    2.0250 H         1 UNK         0.1334 
     82 H82        32.0474   26.9629    4.1553 H         1 UNK         0.1417 
     83 H83        30.4430   23.1844    5.3686 H         1 UNK         0.1562 
     84 H84        30.6914   26.9106    6.0482 H         1 UNK         0.0748 
     85 H85        30.8045   25.4430    6.9747 H         1 UNK         0.0748 
     86 H86        27.1583   25.5564    4.0823 H         1 UNK         0.0940 
     87 H87        28.7739   25.0789    3.7052 H         1 UNK         0.0940 
     88 H88        29.3620   27.6625    4.1078 H         1 UNK         0.0703 
     89 H89        28.4950   26.2914    1.7133 H         1 UNK         0.3081 
     90 H90        29.8127   28.7923   -0.4770 H         1 UNK         0.0719 
     91 H91        31.2084   26.9012   -1.2994 H         1 UNK         0.0809 
     92 H92        31.8627   27.5769    0.1803 H         1 UNK         0.0809 
     93 H93        30.9808   26.0513    0.2274 H         1 UNK         0.0809 
     94 H94        28.8503   26.2387   -1.1377 H         1 UNK         0.2990 
     95 H95        25.4563   27.3175   -1.7330 H         1 UNK         0.0690 
     96 H96        27.8962   26.4408   -3.3720 H         1 UNK         0.0788 
     97 H97        27.0214   27.9548   -3.5622 H         1 UNK         0.0788 
     98 H98        26.2198   26.4319   -3.9119 H         1 UNK         0.0788 
     99 H99        27.1405   24.8590   -1.5849 H         1 UNK         0.2993 
    100 H100       25.1112   23.4513    0.9171 H         1 UNK         0.0949 
    101 H101       25.1764   22.5330   -2.0114 H         1 UNK         0.0767 
    102 H102       24.7837   21.5262   -0.6160 H         1 UNK         0.0767 
    103 H103       23.7194   22.8434   -1.0773 H         1 UNK         0.0767 
    104 H104       27.1952   22.2492   -0.5388 H         1 UNK         0.3013 
    105 H105       26.4204   27.5735    2.1251 H         1 UNK         0.3121 
    106 H106       24.7686   29.1414    3.8958 H         1 UNK         0.0774 
    107 H107       23.2511   29.2430    1.9167 H         1 UNK         0.0815 
    108 H108       24.4968   28.5341    0.8994 H         1 UNK         0.0815 
    109 H109       23.7893   27.5977    2.2128 H         1 UNK         0.0815 
    110 H110       26.7740   29.8860    1.0163 H         1 UNK         0.2987 
    111 H111       26.2639   32.7125    1.0057 H         1 UNK         0.0949 
    112 H112       28.5509   31.0699   -0.2170 H         1 UNK         0.0806 
    113 H113       27.0135   31.4291   -1.0018 H         1 UNK         0.0806 
    114 H114       28.1413   32.7267   -0.6424 H         1 UNK         0.0806 
    115 H115       28.2399   30.7872    3.0166 H         1 UNK         0.3010 
    116 H116       29.7320   31.0927    4.6102 H         1 UNK         0.0829 
    117 H117       29.8286   33.2173    5.8691 H         1 UNK         0.0813 
    118 H118       28.9673   34.0620    4.5930 H         1 UNK         0.0813 
    119 H119       28.1590   32.7977    5.5188 H         1 UNK         0.0813 
    120 H120       30.8982   30.5767    2.4465 H         1 UNK         0.3038 
    121 H121       32.7205   32.3409    1.2944 H         1 UNK         0.0769 
    122 H122       33.8946   30.2639    0.5220 H         1 UNK         0.0811 
    123 H123       32.1584   30.2052    0.2698 H         1 UNK         0.0811 
    124 H124       32.8852   29.3080    1.5970 H         1 UNK         0.0811 
    125 H125       34.9723   31.2238    4.5490 H         1 UNK         0.3204 
    126 H126       32.6050   29.5362    3.8977 H         1 UNK         0.0748 
    127 H127       31.9278   29.6771    6.2323 H         1 UNK         0.0771 
    128 H128       33.3713   30.5753    6.6786 H         1 UNK         0.0771 
    129 H129       32.1292   31.3391    5.7086 H         1 UNK         0.0771 
    130 H130       35.5223   29.1359    3.3917 H         1 UNK         0.2980 
    131 H131       37.0710   27.5781    3.5276 H         1 UNK         0.0545 
    132 H132       36.6794   29.3952    6.0282 H         1 UNK         0.3459 
    133 H133       37.7383   28.6107    7.1713 H         1 UNK         0.3459 
    134 H134       36.4280   25.1996    4.2960 H         1 UNK         0.0616 
    135 H135       34.8358   25.7943    4.6280 H         1 UNK         0.0616 
    136 H136       33.3091   25.9205    1.0547 H         1 UNK         0.0634 
    137 H137       33.4593   27.1645    2.2727 H         1 UNK         0.0634 
@<TRIPOS>BOND
     1    1    2 1    
     2    1   72 1    
     3    1   73 1    
     4    1   74 1    
     5    2    3 2    
     6    2    4 am   BACKBONE|DICT|INTERRES
     7    4    5 1    
     8    4   75 1    
     9    5    6 1    
    10    5   35 1    
    11    5   76 1    
    12    6    7 1    
    13    6   77 1    
    14    6   78 1    
    15    7    8 1    
    16    8    9 1    
    17    8   79 1    
    18    8   80 1    
    19    9   10 ar   
    20    9   14 ar   
    21   10   11 ar   
    22   10   81 1    
    23   11   12 ar   
    24   11   71 1    
    25   12   13 ar   
    26   12   82 1    
    27   13   14 ar   
    28   13   15 1    
    29   14   83 1    
    30   15   16 1    
    31   15   84 1    
    32   15   85 1    
    33   16   17 1    
    34   17   18 1    
    35   17   86 1    
    36   17   87 1    
    37   18   19 1    
    38   18   37 1    
    39   18   88 1    
    40   19   20 am   BACKBONE|DICT|INTERRES
    41   19   89 1    
    42   20   21 2    
    43   20   22 1    
    44   22   23 1    
    45   22   24 1    
    46   22   90 1    
    47   23   91 1    
    48   23   92 1    
    49   23   93 1    
    50   24   25 am   BACKBONE|DICT|INTERRES
    51   24   94 1    
    52   25   26 2    
    53   25   27 1    
    54   27   28 1    
    55   27   29 1    
    56   27   95 1    
    57   28   96 1    
    58   28   97 1    
    59   28   98 1    
    60   29   30 am   BACKBONE|DICT|INTERRES
    61   29   99 1    
    62   30   31 2    
    63   30   32 1    
    64   32   33 1    
    65   32   34 1    
    66   32  100 1    
    67   33  101 1    
    68   33  102 1    
    69   33  103 1    
    70   34   35 am   BACKBONE|DICT|INTERRES
    71   34  104 1    
    72   35   36 2    
    73   37   38 2    
    74   37   39 am   BACKBONE|DICT|INTERRES
    75   39   40 1    
    76   39  105 1    
    77   40   41 1    
    78   40   42 1    
    79   40  106 1    
    80   41  107 1    
    81   41  108 1    
    82   41  109 1    
    83   42   43 2    
    84   42   44 am   BACKBONE|DICT|INTERRES
    85   44   45 1    
    86   44  110 1    
    87   45   46 1    
    88   45   47 1    
    89   45  111 1    
    90   46  112 1    
    91   46  113 1    
    92   46  114 1    
    93   47   48 2    
    94   47   49 am   BACKBONE|DICT|INTERRES
    95   49   50 1    
    96   49  115 1    
    97   50   51 1    
    98   50   52 1    
    99   50  116 1    
   100   51  117 1    
   101   51  118 1    
   102   51  119 1    
   103   52   53 2    
   104   52   54 am   BACKBONE|DICT|INTERRES
   105   54   55 1    
   106   54  120 1    
   107   55   56 1    
   108   55   57 1    
   109   55  121 1    
   110   56  122 1    
   111   56  123 1    
   112   56  124 1    
   113   57   58 2    
   114   57   59 am   BACKBONE|DICT|INTERRES
   115   59   60 1    
   116   59  125 1    
   117   60   61 1    
   118   60   62 1    
   119   60  126 1    
   120   61  127 1    
   121   61  128 1    
   122   61  129 1    
   123   62   63 2    
   124   62   64 am   BACKBONE|DICT|INTERRES
   125   64   65 1    
   126   64  130 1    
   127   65   66 1    
   128   65   69 1    
   129   65  131 1    
   130   66   67 am   BACKBONE|DICT|INTERRES
   131   66   68 2    
   132   67  132 1    
   133   67  133 1    
   134   69   70 1    
   135   69  134 1    
   136   69  135 1    
   137   70   71 1    
   138   71  136 1    
   139   71  137 1    
@<TRIPOS>SUBSTRUCTURE
     1 UNK         1 GROUP             0       ****    0 ROOT    
