@<TRIPOS>MOLECULE
3R136
137   139    1
SMALL
USER_CHARGES


@<TRIPOS>ATOM
      1 CA         29.5349   28.2454   -2.2026 C.3       0 UNK        -0.1979 
      2 C          28.8781   27.1329   -1.4021 C.2       0 UNK         0.4864 
      3 O          27.6891   27.2279   -1.0991 O.2       0 UNK        -0.5359 
      4 N          29.6351   26.0729   -1.0799 N.am      1 UNK        -0.4318 
      5 CA         29.2524   24.9428   -0.2158 C.3       1 UNK         0.0824 
      6 C6         30.3735   23.8786   -0.1289 C.3       12 UNK        -0.0944 
      7 S7         31.9801   24.5612    0.4014 S.3       12 UNK        -0.2672 
      8 C8         32.7736   23.0805    1.1055 C.3       12 UNK         0.0333 
      9 C9         32.7174   23.0897    2.6255 C.ar      12 UNK        -0.0807 
     10 C10        33.8512   23.4458    3.3610 C.ar      12 UNK        -0.0894 
     11 C11        33.8084   23.4870    4.7573 C.ar      12 UNK        -0.0804 
     12 C12        32.6224   23.1602    5.4187 C.ar      12 UNK        -0.0824 
     13 C13        31.4852   22.7883    4.6963 C.ar      12 UNK        -0.0762 
     14 C14        31.5408   22.7458    3.2991 C.ar      12 UNK        -0.0782 
     15 C15        30.2045   22.4242    5.4357 C.3       12 UNK         0.0230 
     16 S16        28.7819   23.4540    4.9514 S.3       12 UNK        -0.2608 
     17 C17        29.3483   25.1497    5.3383 C.3       12 UNK        -0.0989 
     18 CA         29.1315   26.1108    4.1428 C.3       5 UNK         0.0716 
     19 N          27.7229   26.1161    3.7156 N.am      5 UNK        -0.4135 
     20 C          27.2338   26.7617    2.6523 C.2       4 UNK         0.5031 
     21 O          27.9140   27.4848    1.9249 O.2       4 UNK        -0.5229 
     22 CA         25.7258   26.6539    2.4205 C.3       4 UNK         0.0329 
     23 CB         24.9886   27.7105    3.2708 C.3       4 UNK        -0.2001 
     24 N          25.4527   26.8322    0.9957 N.am      4 UNK        -0.4303 
     25 C          24.2773   26.6042    0.3946 C.2       3 UNK         0.5044 
     26 O          23.2525   26.2624    0.9863 O.2       3 UNK        -0.5152 
     27 CA         24.2489   26.7370   -1.1338 C.3       3 UNK         0.0319 
     28 CB         24.4614   28.1940   -1.5805 C.3       3 UNK        -0.2001 
     29 N          25.2703   25.8730   -1.7225 N.am      3 UNK        -0.4354 
     30 C          25.0888   24.5742   -2.0049 C.2       2 UNK         0.4964 
     31 O          24.0000   24.0034   -1.9287 O.2       2 UNK        -0.5047 
     32 CA         26.3218   23.7604   -2.4424 C.3       2 UNK         0.0288 
     33 CB         26.4186   23.7127   -3.9760 C.3       2 UNK        -0.2113 
     34 N          27.5837   24.2655   -1.8973 N.am      2 UNK        -0.4145 
     35 C          27.9224   24.2559   -0.5988 C.2       1 UNK         0.5006 
     36 O          27.2327   23.7438    0.2841 O.2       1 UNK        -0.5103 
     37 C          29.6842   27.5199    4.4682 C.2       5 UNK         0.5055 
     38 O          30.8959   27.7288    4.3864 O.2       5 UNK        -0.5220 
     39 N          28.7898   28.4553    4.8182 N.am      6 UNK        -0.4450 
     40 CA         29.0867   29.8594    5.0987 C.3       6 UNK         0.0367 
     41 CB         28.4082   30.2484    6.4239 C.3       6 UNK        -0.1929 
     42 C          28.6551   30.8072    3.9616 C.2       6 UNK         0.5070 
     43 O          28.7782   32.0201    4.1328 O.2       6 UNK        -0.5237 
     44 N          28.1594   30.2860    2.8245 N.am      7 UNK        -0.4739 
     45 CA         27.7714   31.1098    1.6677 C.3       7 UNK         0.0276 
     46 CB         26.9443   30.2877    0.6682 C.3       7 UNK        -0.1927 
     47 C          28.9880   31.7371    0.9685 C.2       7 UNK         0.5013 
     48 O          28.9121   32.8819    0.5224 O.2       7 UNK        -0.5193 
     49 N          30.1039   30.9975    0.9461 N.am      8 UNK        -0.4253 
     50 CA         31.4243   31.4719    0.5347 C.3       8 UNK         0.0242 
     51 CB         32.1144   30.3763   -0.2986 C.3       8 UNK        -0.2000 
     52 C          32.2323   31.8837    1.7787 C.2       8 UNK         0.4948 
     53 O          33.3340   31.3734    1.9954 O.2       8 UNK        -0.5275 
     54 N          31.6412   32.7682    2.5978 N.am      9 UNK        -0.4246 
     55 CA         32.1117   33.3168    3.8793 C.3       9 UNK         0.0261 
     56 CB         33.3981   34.1478    3.6998 C.3       9 UNK        -0.1959 
     57 C          32.2689   32.2658    4.9935 C.2       9 UNK         0.5033 
     58 O          31.6210   32.3795    6.0342 O.2       9 UNK        -0.5390 
     59 N          33.1158   31.2668    4.7436 N.am      10 UNK        -0.4215 
     60 CA         33.4061   30.1092    5.5772 C.3       10 UNK         0.0240 
     61 CB         34.1043   30.5171    6.8915 C.3       10 UNK        -0.1982 
     62 C          34.2914   29.1841    4.7395 C.2       10 UNK         0.4970 
     63 O          35.4609   29.5085    4.5253 O.2       10 UNK        -0.4916 
     64 N          33.7149   28.0759    4.2632 N.am      11 UNK        -0.4279 
     65 CA         34.3803   27.0082    3.4948 C.3       11 UNK         0.1003 
     66 C          34.7920   27.3803    2.0379 C.2       11 UNK         0.5709 
     67 N          34.4901   28.5662    1.5247 N.am      11 UNK        -0.7358 
     68 O          35.3811   26.5591    1.3389 O.2       11 UNK        -0.4999 
     69 C69        35.5572   26.3378    4.2678 C.3       12 UNK        -0.0954 
     70 S70        35.0735   25.6685    5.8956 S.3       12 UNK        -0.2268 
     71 C71        35.0400   23.8812    5.5576 C.3       12 UNK         0.0203 
     72 H72        29.3881   29.2001   -1.6984 H         1 UNK         0.0888 
     73 H73        30.6057   28.0836   -2.3238 H         1 UNK         0.0888 
     74 H74        29.0836   28.3108   -3.1920 H         1 UNK         0.0888 
     75 H75        30.6041   26.0641   -1.3657 H         1 UNK         0.3017 
     76 H76        29.1105   25.3578    0.7828 H         1 UNK         0.0873 
     77 H77        30.5188   23.3926   -1.0959 H         1 UNK         0.0745 
     78 H78        30.0822   23.0905    0.5674 H         1 UNK         0.0745 
     79 H79        32.3104   22.1722    0.7172 H         1 UNK         0.0705 
     80 H80        33.8107   23.0545    0.7672 H         1 UNK         0.0705 
     81 H81        34.7650   23.7044    2.8439 H         1 UNK         0.1334 
     82 H82        32.5882   23.1963    6.4992 H         1 UNK         0.1417 
     83 H83        30.6608   22.4609    2.7400 H         1 UNK         0.1562 
     84 H84        30.3400   22.5044    6.5155 H         1 UNK         0.0748 
     85 H85        29.9662   21.3790    5.2344 H         1 UNK         0.0748 
     86 H86        30.4020   25.1312    5.6226 H         1 UNK         0.0940 
     87 H87        28.8060   25.4987    6.2193 H         1 UNK         0.0940 
     88 H88        29.7186   25.7381    3.3001 H         1 UNK         0.0703 
     89 H89        27.1020   25.5377    4.2635 H         1 UNK         0.3081 
     90 H90        25.3978   25.6531    2.7090 H         1 UNK         0.0719 
     91 H91        25.1957   27.5738    4.3327 H         1 UNK         0.0809 
     92 H92        25.2908   28.7246    3.0100 H         1 UNK         0.0809 
     93 H93        23.9074   27.6459    3.1524 H         1 UNK         0.0809 
     94 H94        26.2640   27.0891    0.4364 H         1 UNK         0.2990 
     95 H95        23.2621   26.4257   -1.4838 H         1 UNK         0.0690 
     96 H96        24.3873   28.2876   -2.6640 H         1 UNK         0.0788 
     97 H97        25.4352   28.5805   -1.2805 H         1 UNK         0.0788 
     98 H98        23.7044   28.8477   -1.1456 H         1 UNK         0.0788 
     99 H99        26.2128   26.2556   -1.7418 H         1 UNK         0.2993 
    100 H100       26.1844   22.7411   -2.0746 H         1 UNK         0.0949 
    101 H101       26.5770   24.7045   -4.4017 H         1 UNK         0.0767 
    102 H102       27.2370   23.0707   -4.3029 H         1 UNK         0.0767 
    103 H103       25.5019   23.3132   -4.4123 H         1 UNK         0.0767 
    104 H104       28.2133   24.7138   -2.5468 H         1 UNK         0.3013 
    105 H105       27.8173   28.1882    4.8607 H         1 UNK         0.3121 
    106 H106       30.1621   29.9946    5.2234 H         1 UNK         0.0774 
    107 H107       28.6632   31.2705    6.7080 H         1 UNK         0.0815 
    108 H108       27.3214   30.1888    6.3556 H         1 UNK         0.0815 
    109 H109       28.7313   29.6010    7.2392 H         1 UNK         0.0815 
    110 H110       28.1097   29.2784    2.7022 H         1 UNK         0.2987 
    111 H111       27.1428   31.9268    2.0295 H         1 UNK         0.0949 
    112 H112       27.5231   29.4662    0.2491 H         1 UNK         0.0806 
    113 H113       26.0513   29.8703    1.1301 H         1 UNK         0.0806 
    114 H114       26.6145   30.9072   -0.1668 H         1 UNK         0.0806 
    115 H115       30.0662   30.0818    1.3714 H         1 UNK         0.3010 
    116 H116       31.3332   32.3598   -0.0948 H         1 UNK         0.0829 
    117 H117       32.1591   29.4273    0.2361 H         1 UNK         0.0813 
    118 H118       33.1356   30.6603   -0.5567 H         1 UNK         0.0813 
    119 H119       31.5866   30.2080   -1.2362 H         1 UNK         0.0813 
    120 H120       30.7117   33.0705    2.3358 H         1 UNK         0.3038 
    121 H121       31.3272   34.0002    4.2090 H         1 UNK         0.0769 
    122 H122       33.2464   34.9605    2.9895 H         1 UNK         0.0811 
    123 H123       34.2335   33.5451    3.3425 H         1 UNK         0.0811 
    124 H124       33.7048   34.5975    4.6451 H         1 UNK         0.0811 
    125 H125       33.5430   31.2568    3.8172 H         1 UNK         0.3204 
    126 H126       32.4710   29.5995    5.8161 H         1 UNK         0.0748 
    127 H127       34.9989   31.1127    6.7056 H         1 UNK         0.0771 
    128 H128       33.4439   31.0985    7.5346 H         1 UNK         0.0771 
    129 H129       34.4091   29.6363    7.4581 H         1 UNK         0.0771 
    130 H130       32.7183   27.9317    4.4191 H         1 UNK         0.2980 
    131 H131       33.6057   26.2524    3.3647 H         1 UNK         0.0545 
    132 H132       34.7708   28.7665    0.5792 H         1 UNK         0.3459 
    133 H133       34.0347   29.2838    2.0699 H         1 UNK         0.3459 
    134 H134       36.3667   27.0511    4.4264 H         1 UNK         0.0616 
    135 H135       35.9993   25.5337    3.6787 H         1 UNK         0.0616 
    136 H136       35.0472   23.3472    6.5090 H         1 UNK         0.0634 
    137 H137       35.9512   23.5818    5.0375 H         1 UNK         0.0634 
@<TRIPOS>BOND
     1    1    2 1    
     2    1   72 1    
     3    1   73 1    
     4    1   74 1    
     5    2    3 2    
     6    2    4 am   BACKBONE|DICT|INTERRES
     7    4    5 1    
     8    4   75 1    
     9    5    6 1    
    10    5   35 1    
    11    5   76 1    
    12    6    7 1    
    13    6   77 1    
    14    6   78 1    
    15    7    8 1    
    16    8    9 1    
    17    8   79 1    
    18    8   80 1    
    19    9   10 ar   
    20    9   14 ar   
    21   10   11 ar   
    22   10   81 1    
    23   11   12 ar   
    24   11   71 1    
    25   12   13 ar   
    26   12   82 1    
    27   13   14 ar   
    28   13   15 1    
    29   14   83 1    
    30   15   16 1    
    31   15   84 1    
    32   15   85 1    
    33   16   17 1    
    34   17   18 1    
    35   17   86 1    
    36   17   87 1    
    37   18   19 1    
    38   18   37 1    
    39   18   88 1    
    40   19   20 am   BACKBONE|DICT|INTERRES
    41   19   89 1    
    42   20   21 2    
    43   20   22 1    
    44   22   23 1    
    45   22   24 1    
    46   22   90 1    
    47   23   91 1    
    48   23   92 1    
    49   23   93 1    
    50   24   25 am   BACKBONE|DICT|INTERRES
    51   24   94 1    
    52   25   26 2    
    53   25   27 1    
    54   27   28 1    
    55   27   29 1    
    56   27   95 1    
    57   28   96 1    
    58   28   97 1    
    59   28   98 1    
    60   29   30 am   BACKBONE|DICT|INTERRES
    61   29   99 1    
    62   30   31 2    
    63   30   32 1    
    64   32   33 1    
    65   32   34 1    
    66   32  100 1    
    67   33  101 1    
    68   33  102 1    
    69   33  103 1    
    70   34   35 am   BACKBONE|DICT|INTERRES
    71   34  104 1    
    72   35   36 2    
    73   37   38 2    
    74   37   39 am   BACKBONE|DICT|INTERRES
    75   39   40 1    
    76   39  105 1    
    77   40   41 1    
    78   40   42 1    
    79   40  106 1    
    80   41  107 1    
    81   41  108 1    
    82   41  109 1    
    83   42   43 2    
    84   42   44 am   BACKBONE|DICT|INTERRES
    85   44   45 1    
    86   44  110 1    
    87   45   46 1    
    88   45   47 1    
    89   45  111 1    
    90   46  112 1    
    91   46  113 1    
    92   46  114 1    
    93   47   48 2    
    94   47   49 am   BACKBONE|DICT|INTERRES
    95   49   50 1    
    96   49  115 1    
    97   50   51 1    
    98   50   52 1    
    99   50  116 1    
   100   51  117 1    
   101   51  118 1    
   102   51  119 1    
   103   52   53 2    
   104   52   54 am   BACKBONE|DICT|INTERRES
   105   54   55 1    
   106   54  120 1    
   107   55   56 1    
   108   55   57 1    
   109   55  121 1    
   110   56  122 1    
   111   56  123 1    
   112   56  124 1    
   113   57   58 2    
   114   57   59 am   BACKBONE|DICT|INTERRES
   115   59   60 1    
   116   59  125 1    
   117   60   61 1    
   118   60   62 1    
   119   60  126 1    
   120   61  127 1    
   121   61  128 1    
   122   61  129 1    
   123   62   63 2    
   124   62   64 am   BACKBONE|DICT|INTERRES
   125   64   65 1    
   126   64  130 1    
   127   65   66 1    
   128   65   69 1    
   129   65  131 1    
   130   66   67 am   BACKBONE|DICT|INTERRES
   131   66   68 2    
   132   67  132 1    
   133   67  133 1    
   134   69   70 1    
   135   69  134 1    
   136   69  135 1    
   137   70   71 1    
   138   71  136 1    
   139   71  137 1    
@<TRIPOS>SUBSTRUCTURE
     1 UNK         1 GROUP             0       ****    0 ROOT    
