@<TRIPOS>MOLECULE
3R136
137   139    1
SMALL
USER_CHARGES


@<TRIPOS>ATOM
      1 CA         33.6378   27.2856   -1.7060 C.3       0 UNK        -0.1979 
      2 C          32.1343   27.4233   -1.5161 C.2       0 UNK         0.4864 
      3 O          31.5216   28.3124   -2.1074 O.2       0 UNK        -0.5359 
      4 N          31.5391   26.5521   -0.6908 N.am      1 UNK        -0.4318 
      5 CA         30.1068   26.5351   -0.3773 C.3       1 UNK         0.0824 
      6 C6         29.8137   25.8911    1.0031 C.3       12 UNK        -0.0944 
      7 S7         30.6207   24.2708    1.2511 S.3       12 UNK        -0.2672 
      8 C8         29.4927   23.4664    2.4421 C.3       12 UNK         0.0333 
      9 C9         29.3071   24.2025    3.7717 C.ar      12 UNK        -0.0807 
     10 C10        30.3120   25.0018    4.3344 C.ar      12 UNK        -0.0894 
     11 C11        30.0980   25.6689    5.5451 C.ar      12 UNK        -0.0804 
     12 C12        28.8788   25.5187    6.2086 C.ar      12 UNK        -0.0824 
     13 C13        27.8667   24.7282    5.6606 C.ar      12 UNK        -0.0762 
     14 C14        28.0934   24.0611    4.4534 C.ar      12 UNK        -0.0782 
     15 C15        26.5218   24.6245    6.3636 C.3       12 UNK         0.0230 
     16 S16        25.6154   26.2045    6.2972 S.3       12 UNK        -0.2608 
     17 C17        25.0208   26.2456    4.5701 C.3       12 UNK        -0.0989 
     18 CA         26.0066   26.8693    3.5400 C.3       5 UNK         0.0716 
     19 N          25.5390   26.6735    2.1696 N.am      5 UNK        -0.4135 
     20 C          25.5921   25.5195    1.4958 C.2       4 UNK         0.5031 
     21 O          26.0458   24.4829    1.9836 O.2       4 UNK        -0.5229 
     22 CA         25.0444   25.5006    0.0527 C.3       4 UNK         0.0329 
     23 CB         25.0312   26.8873   -0.6229 C.3       4 UNK        -0.2001 
     24 N          25.8316   24.5618   -0.7538 N.am      4 UNK        -0.4303 
     25 C          25.5599   23.2532   -0.8798 C.2       3 UNK         0.5044 
     26 O          24.4949   22.7481   -0.5180 O.2       3 UNK        -0.5152 
     27 CA         26.6612   22.3271   -1.4436 C.3       3 UNK         0.0319 
     28 CB         26.0976   21.2393   -2.3842 C.3       3 UNK        -0.2001 
     29 N          27.8115   23.0182   -2.0413 N.am      3 UNK        -0.4354 
     30 C          27.8464   23.7155   -3.1867 C.2       2 UNK         0.4964 
     31 O          26.8849   23.8442   -3.9463 O.2       2 UNK        -0.5047 
     32 CA         29.1878   24.4139   -3.5059 C.3       2 UNK         0.0288 
     33 CB         29.0652   25.4383   -4.6544 C.3       2 UNK        -0.2113 
     34 N          29.8172   25.0484   -2.3351 N.am      2 UNK        -0.4145 
     35 C          29.2432   25.9289   -1.4975 C.2       1 UNK         0.5006 
     36 O          28.0654   26.2736   -1.5757 O.2       1 UNK        -0.5103 
     37 C          26.2478   28.3748    3.7499 C.2       5 UNK         0.5055 
     38 O          25.6754   29.1889    3.0192 O.2       5 UNK        -0.5220 
     39 N          27.0865   28.7040    4.7436 N.am      6 UNK        -0.4450 
     40 CA         27.4482   30.0519    5.2045 C.3       6 UNK         0.0367 
     41 CB         26.2154   30.7872    5.7734 C.3       6 UNK        -0.1929 
     42 C          28.2169   30.8901    4.1622 C.2       6 UNK         0.5070 
     43 O          28.1106   32.1179    4.1632 O.2       6 UNK        -0.5237 
     44 N          28.9943   30.2218    3.3018 N.am      7 UNK        -0.4739 
     45 CA         29.8702   30.8529    2.3186 C.3       7 UNK         0.0276 
     46 CB         29.9632   29.9533    1.0781 C.3       7 UNK        -0.1927 
     47 C          31.2552   31.0472    2.9426 C.2       7 UNK         0.5013 
     48 O          31.9479   30.0562    3.1853 O.2       7 UNK        -0.5193 
     49 N          31.6552   32.3066    3.1651 N.am      8 UNK        -0.4253 
     50 CA         32.9273   32.6953    3.7929 C.3       8 UNK         0.0242 
     51 CB         33.0040   34.2277    3.8813 C.3       8 UNK        -0.2000 
     52 C          34.1890   32.1333    3.1092 C.2       8 UNK         0.4948 
     53 O          35.1945   31.9238    3.7873 O.2       8 UNK        -0.5275 
     54 N          34.0997   31.8486    1.8017 N.am      9 UNK        -0.4246 
     55 CA         35.1242   31.1598    1.0121 C.3       9 UNK         0.0261 
     56 CB         34.6933   31.1433   -0.4640 C.3       9 UNK        -0.1959 
     57 C          35.4328   29.7279    1.4950 C.2       9 UNK         0.5033 
     58 O          36.5528   29.2611    1.2824 O.2       9 UNK        -0.5390 
     59 N          34.4549   29.0654    2.1290 N.am      10 UNK        -0.4215 
     60 CA         34.6096   27.7539    2.7577 C.3       10 UNK         0.0240 
     61 CB         33.4492   26.8391    2.3335 C.3       10 UNK        -0.1982 
     62 C          34.6544   27.8778    4.2857 C.2       10 UNK         0.4970 
     63 O          35.4990   27.2406    4.9159 O.2       10 UNK        -0.4916 
     64 N          33.7331   28.6655    4.8537 N.am      11 UNK        -0.4279 
     65 CA         33.5274   28.7894    6.3031 C.3       11 UNK         0.1003 
     66 C          34.5749   29.6673    7.0439 C.2       11 UNK         0.5709 
     67 N          35.3584   30.4982    6.3676 N.am      11 UNK        -0.7358 
     68 O          34.6860   29.5830    8.2647 O.2       11 UNK        -0.4999 
     69 C69        32.0810   29.2405    6.6431 C.3       12 UNK        -0.0954 
     70 S70        30.7520   28.3184    5.7922 S.3       12 UNK        -0.2268 
     71 C71        31.1649   26.5800    6.1279 C.3       12 UNK         0.0203 
     72 H72        33.8858   27.2951   -2.7670 H         1 UNK         0.0888 
     73 H73        34.1541   28.1167   -1.2269 H         1 UNK         0.0888 
     74 H74        34.0191   26.3580   -1.2796 H         1 UNK         0.0888 
     75 H75        32.0835   25.8358   -0.2304 H         1 UNK         0.3017 
     76 H76        29.7750   27.5715   -0.3192 H         1 UNK         0.0873 
     77 H77        28.7384   25.7954    1.1693 H         1 UNK         0.0745 
     78 H78        30.1691   26.5553    1.7919 H         1 UNK         0.0745 
     79 H79        28.5277   23.3310    1.9510 H         1 UNK         0.0705 
     80 H80        29.8725   22.4663    2.6538 H         1 UNK         0.0705 
     81 H81        31.2583   25.1197    3.8261 H         1 UNK         0.1334 
     82 H82        28.7062   26.0429    7.1391 H         1 UNK         0.1417 
     83 H83        27.3088   23.4506    4.0266 H         1 UNK         0.1562 
     84 H84        26.6863   24.3567    7.4083 H         1 UNK         0.0748 
     85 H85        25.9104   23.8281    5.9365 H         1 UNK         0.0748 
     86 H86        24.0718   26.7849    4.5519 H         1 UNK         0.0940 
     87 H87        24.7754   25.2223    4.2829 H         1 UNK         0.0940 
     88 H88        26.9790   26.3836    3.6202 H         1 UNK         0.0703 
     89 H89        25.1970   27.5175    1.7264 H         1 UNK         0.3081 
     90 H90        24.0106   25.1541    0.1084 H         1 UNK         0.0719 
     91 H91        24.2805   27.5381   -0.1732 H         1 UNK         0.0809 
     92 H92        25.9936   27.3936   -0.5454 H         1 UNK         0.0809 
     93 H93        24.7854   26.8069   -1.6820 H         1 UNK         0.0809 
     94 H94        26.7204   24.9168   -1.0918 H         1 UNK         0.2990 
     95 H95        27.0659   21.8111   -0.5716 H         1 UNK         0.0690 
     96 H96        26.8873   20.5871   -2.7570 H         1 UNK         0.0788 
     97 H97        25.5823   21.6699   -3.2429 H         1 UNK         0.0788 
     98 H98        25.3780   20.6066   -1.8631 H         1 UNK         0.0788 
     99 H99        28.6583   22.9951   -1.4895 H         1 UNK         0.2993 
    100 H100       29.8660   23.6259   -3.8371 H         1 UNK         0.0949 
    101 H101       28.3686   26.2400   -4.4057 H         1 UNK         0.0767 
    102 H102       30.0290   25.8927   -4.8847 H         1 UNK         0.0767 
    103 H103       28.7053   24.9640   -5.5683 H         1 UNK         0.0767 
    104 H104       30.7859   24.8122   -2.1717 H         1 UNK         0.3013 
    105 H105       27.4935   27.9466    5.2769 H         1 UNK         0.3121 
    106 H106       28.1432   29.9067    6.0326 H         1 UNK         0.0774 
    107 H107       26.5052   31.7193    6.2600 H         1 UNK         0.0815 
    108 H108       25.4980   31.0394    4.9920 H         1 UNK         0.0815 
    109 H109       25.7011   30.1811    6.5192 H         1 UNK         0.0815 
    110 H110       29.0904   29.2234    3.4178 H         1 UNK         0.2987 
    111 H111       29.4618   31.8182    2.0108 H         1 UNK         0.0949 
    112 H112       28.9792   29.7658    0.6478 H         1 UNK         0.0806 
    113 H113       30.5761   30.4146    0.3024 H         1 UNK         0.0806 
    114 H114       30.4177   28.9928    1.3205 H         1 UNK         0.0806 
    115 H115       31.0185   33.0588    2.9423 H         1 UNK         0.3010 
    116 H116       32.9160   32.2959    4.8093 H         1 UNK         0.0829 
    117 H117       32.9794   34.6912    2.8942 H         1 UNK         0.0813 
    118 H118       33.9280   34.5451    4.3673 H         1 UNK         0.0813 
    119 H119       32.1785   34.6345    4.4657 H         1 UNK         0.0813 
    120 H120       33.2355   32.0691    1.3293 H         1 UNK         0.3038 
    121 H121       36.0476   31.7367    1.0955 H         1 UNK         0.0769 
    122 H122       34.5713   32.1541   -0.8537 H         1 UNK         0.0811 
    123 H123       33.7509   30.6121   -0.6049 H         1 UNK         0.0811 
    124 H124       35.4423   30.6484   -1.0841 H         1 UNK         0.0811 
    125 H125       33.5721   29.5400    2.2975 H         1 UNK         0.3204 
    126 H126       35.5411   27.2821    2.4379 H         1 UNK         0.0748 
    127 H127       33.5005   25.8759    2.8428 H         1 UNK         0.0771 
    128 H128       32.4766   27.2790    2.5593 H         1 UNK         0.0771 
    129 H129       33.4905   26.6381    1.2655 H         1 UNK         0.0771 
    130 H130       33.0500   29.1444    4.2708 H         1 UNK         0.2980 
    131 H131       33.6548   27.7925    6.7281 H         1 UNK         0.0545 
    132 H132       35.2577   30.6328    5.3688 H         1 UNK         0.3459 
    133 H133       36.0335   31.0485    6.8733 H         1 UNK         0.3459 
    134 H134       31.9503   30.2938    6.3878 H         1 UNK         0.0616 
    135 H135       31.9034   29.1640    7.7173 H         1 UNK         0.0616 
    136 H136       32.1371   26.3396    5.6965 H         1 UNK         0.0634 
    137 H137       31.2459   26.4230    7.2044 H         1 UNK         0.0634 
@<TRIPOS>BOND
     1    1    2 1    
     2    1   72 1    
     3    1   73 1    
     4    1   74 1    
     5    2    3 2    
     6    2    4 am   BACKBONE|DICT|INTERRES
     7    4    5 1    
     8    4   75 1    
     9    5    6 1    
    10    5   35 1    
    11    5   76 1    
    12    6    7 1    
    13    6   77 1    
    14    6   78 1    
    15    7    8 1    
    16    8    9 1    
    17    8   79 1    
    18    8   80 1    
    19    9   10 ar   
    20    9   14 ar   
    21   10   11 ar   
    22   10   81 1    
    23   11   12 ar   
    24   11   71 1    
    25   12   13 ar   
    26   12   82 1    
    27   13   14 ar   
    28   13   15 1    
    29   14   83 1    
    30   15   16 1    
    31   15   84 1    
    32   15   85 1    
    33   16   17 1    
    34   17   18 1    
    35   17   86 1    
    36   17   87 1    
    37   18   19 1    
    38   18   37 1    
    39   18   88 1    
    40   19   20 am   BACKBONE|DICT|INTERRES
    41   19   89 1    
    42   20   21 2    
    43   20   22 1    
    44   22   23 1    
    45   22   24 1    
    46   22   90 1    
    47   23   91 1    
    48   23   92 1    
    49   23   93 1    
    50   24   25 am   BACKBONE|DICT|INTERRES
    51   24   94 1    
    52   25   26 2    
    53   25   27 1    
    54   27   28 1    
    55   27   29 1    
    56   27   95 1    
    57   28   96 1    
    58   28   97 1    
    59   28   98 1    
    60   29   30 am   BACKBONE|DICT|INTERRES
    61   29   99 1    
    62   30   31 2    
    63   30   32 1    
    64   32   33 1    
    65   32   34 1    
    66   32  100 1    
    67   33  101 1    
    68   33  102 1    
    69   33  103 1    
    70   34   35 am   BACKBONE|DICT|INTERRES
    71   34  104 1    
    72   35   36 2    
    73   37   38 2    
    74   37   39 am   BACKBONE|DICT|INTERRES
    75   39   40 1    
    76   39  105 1    
    77   40   41 1    
    78   40   42 1    
    79   40  106 1    
    80   41  107 1    
    81   41  108 1    
    82   41  109 1    
    83   42   43 2    
    84   42   44 am   BACKBONE|DICT|INTERRES
    85   44   45 1    
    86   44  110 1    
    87   45   46 1    
    88   45   47 1    
    89   45  111 1    
    90   46  112 1    
    91   46  113 1    
    92   46  114 1    
    93   47   48 2    
    94   47   49 am   BACKBONE|DICT|INTERRES
    95   49   50 1    
    96   49  115 1    
    97   50   51 1    
    98   50   52 1    
    99   50  116 1    
   100   51  117 1    
   101   51  118 1    
   102   51  119 1    
   103   52   53 2    
   104   52   54 am   BACKBONE|DICT|INTERRES
   105   54   55 1    
   106   54  120 1    
   107   55   56 1    
   108   55   57 1    
   109   55  121 1    
   110   56  122 1    
   111   56  123 1    
   112   56  124 1    
   113   57   58 2    
   114   57   59 am   BACKBONE|DICT|INTERRES
   115   59   60 1    
   116   59  125 1    
   117   60   61 1    
   118   60   62 1    
   119   60  126 1    
   120   61  127 1    
   121   61  128 1    
   122   61  129 1    
   123   62   63 2    
   124   62   64 am   BACKBONE|DICT|INTERRES
   125   64   65 1    
   126   64  130 1    
   127   65   66 1    
   128   65   69 1    
   129   65  131 1    
   130   66   67 am   BACKBONE|DICT|INTERRES
   131   66   68 2    
   132   67  132 1    
   133   67  133 1    
   134   69   70 1    
   135   69  134 1    
   136   69  135 1    
   137   70   71 1    
   138   71  136 1    
   139   71  137 1    
@<TRIPOS>SUBSTRUCTURE
     1 UNK         1 GROUP             0       ****    0 ROOT    
