@<TRIPOS>MOLECULE
3R136
137   139    1
SMALL
USER_CHARGES


@<TRIPOS>ATOM
      1 CA         29.1118   27.0305    7.6813 C.3       0 UNK        -0.1979 
      2 C          29.4856   26.3361    6.3816 C.2       0 UNK         0.4864 
      3 O          30.4297   25.5430    6.3620 O.2       0 UNK        -0.5359 
      4 N          28.7725   26.6383    5.2903 N.am      1 UNK        -0.4318 
      5 CA         28.9949   26.0441    3.9703 C.3       1 UNK         0.0824 
      6 C6         28.3151   26.8555    2.8365 C.3       12 UNK        -0.0944 
      7 S7         28.6523   28.6511    2.7843 S.3       12 UNK        -0.2672 
      8 C8         30.4505   28.7676    3.0408 C.3       12 UNK         0.0333 
      9 C9         31.2522   27.9854    2.0127 C.ar      12 UNK        -0.0807 
     10 C10        32.1761   27.0347    2.4404 C.ar      12 UNK        -0.0894 
     11 C11        32.8969   26.2776    1.5191 C.ar      12 UNK        -0.0804 
     12 C12        32.6954   26.4817    0.1512 C.ar      12 UNK        -0.0824 
     13 C13        31.7864   27.4459   -0.3009 C.ar      12 UNK        -0.0762 
     14 C14        31.0836   28.2073    0.6439 C.ar      12 UNK        -0.0782 
     15 C15        31.6082   27.6255   -1.8120 C.3       12 UNK         0.0230 
     16 S16        30.1574   28.6020   -2.3471 S.3       12 UNK        -0.2608 
     17 C17        28.7805   27.5637   -1.7456 C.3       12 UNK        -0.0989 
     18 CA         27.3632   28.1374   -2.0008 C.3       5 UNK         0.0716 
     19 N          26.3585   27.2507   -1.4187 N.am      5 UNK        -0.4135 
     20 C          25.0829   27.1251   -1.7939 C.2       4 UNK         0.5031 
     21 O          24.5901   27.7384   -2.7424 O.2       4 UNK        -0.5229 
     22 CA         24.2207   26.1370   -0.9690 C.3       4 UNK         0.0329 
     23 CB         22.8282   25.9124   -1.5885 C.3       4 UNK        -0.2001 
     24 N          24.8508   24.8264   -0.7350 N.am      4 UNK        -0.4303 
     25 C          25.8999   24.5895    0.0642 C.2       3 UNK         0.5044 
     26 O          26.4963   25.4805    0.6749 O.2       3 UNK        -0.5152 
     27 CA         26.3927   23.1403    0.1758 C.3       3 UNK         0.0319 
     28 CB         26.9432   22.6235   -1.1664 C.3       3 UNK        -0.2001 
     29 N          27.4507   23.1039    1.1817 N.am      3 UNK        -0.4354 
     30 C          27.7655   22.0801    1.9818 C.2       2 UNK         0.4964 
     31 O          27.2106   20.9816    1.9319 O.2       2 UNK        -0.5047 
     32 CA         28.8945   22.3072    3.0088 C.3       2 UNK         0.0288 
     33 CB         30.1602   21.5375    2.5968 C.3       2 UNK        -0.2113 
     34 N          29.2400   23.7208    3.2086 N.am      2 UNK        -0.4145 
     35 C          28.5114   24.5793    3.9368 C.2       1 UNK         0.5006 
     36 O          27.4774   24.2636    4.5317 O.2       1 UNK        -0.5103 
     37 C          27.1675   29.5813   -1.4859 C.2       5 UNK         0.5055 
     38 O          27.1352   30.5070   -2.2985 O.2       5 UNK        -0.5220 
     39 N          27.0003   29.7337   -0.1601 N.am      6 UNK        -0.4450 
     40 CA         26.7553   30.9882    0.5680 C.3       6 UNK         0.0367 
     41 CB         25.3487   31.5345    0.2411 C.3       6 UNK        -0.1929 
     42 C          27.8711   32.0343    0.3598 C.2       6 UNK         0.5070 
     43 O          27.6028   33.1431   -0.1079 O.2       6 UNK        -0.5237 
     44 N          29.1064   31.6522    0.7040 N.am      7 UNK        -0.4739 
     45 CA         30.3041   32.4939    0.6144 C.3       7 UNK         0.0276 
     46 CB         31.3820   31.7367   -0.1832 C.3       7 UNK        -0.1927 
     47 C          30.8243   32.8466    2.0174 C.2       7 UNK         0.5013 
     48 O          30.3278   32.3217    3.0166 O.2       7 UNK        -0.5193 
     49 N          31.8480   33.7080    2.0689 N.am      8 UNK        -0.4253 
     50 CA         32.5961   34.0453    3.2821 C.3       8 UNK         0.0242 
     51 CB         33.1719   35.4668    3.1365 C.3       8 UNK        -0.2000 
     52 C          33.6877   32.9878    3.5338 C.2       8 UNK         0.4948 
     53 O          34.8693   33.2497    3.2997 O.2       8 UNK        -0.5275 
     54 N          33.2633   31.7970    3.9650 N.am      9 UNK        -0.4246 
     55 CA         34.0882   30.6178    4.2210 C.3       9 UNK         0.0261 
     56 CB         34.4606   29.9439    2.8827 C.3       9 UNK        -0.1959 
     57 C          33.3076   29.6690    5.1433 C.2       9 UNK         0.5033 
     58 O          32.1750   29.9840    5.5192 O.2       9 UNK        -0.5390 
     59 N          33.9038   28.5196    5.4786 N.am      10 UNK        -0.4215 
     60 CA         33.2568   27.4331    6.2100 C.3       10 UNK         0.0240 
     61 CB         33.3082   27.6930    7.7263 C.3       10 UNK        -0.1982 
     62 C          33.9402   26.1091    5.8514 C.2       10 UNK         0.4970 
     63 O          35.1553   26.0980    5.6414 O.2       10 UNK        -0.4916 
     64 N          33.1519   25.0316    5.8058 N.am      11 UNK        -0.4279 
     65 CA         33.5965   23.6476    5.5672 C.3       11 UNK         0.1003 
     66 C          32.5618   22.5633    5.9881 C.2       11 UNK         0.5709 
     67 N          31.3472   22.9014    6.4054 N.am      11 UNK        -0.7358 
     68 O          32.8799   21.3765    5.9653 O.2       11 UNK        -0.4999 
     69 C69        34.1693   23.3991    4.1393 C.3       12 UNK        -0.0954 
     70 S70        33.0183   23.8431    2.7931 S.3       12 UNK        -0.2268 
     71 C71        33.8875   25.2464    2.0266 C.3       12 UNK         0.0203 
     72 H72        28.2591   27.6976    7.5562 H         1 UNK         0.0888 
     73 H73        28.8581   26.2916    8.4407 H         1 UNK         0.0888 
     74 H74        29.9539   27.6192    8.0444 H         1 UNK         0.0888 
     75 H75        27.9996   27.2849    5.3536 H         1 UNK         0.3017 
     76 H76        30.0697   26.0315    3.7950 H         1 UNK         0.0873 
     77 H77        27.2304   26.7437    2.8931 H         1 UNK         0.0745 
     78 H78        28.6130   26.4497    1.8683 H         1 UNK         0.0745 
     79 H79        30.7545   29.8115    2.9986 H         1 UNK         0.0705 
     80 H80        30.6729   28.4274    4.0519 H         1 UNK         0.0705 
     81 H81        32.3275   26.8664    3.4958 H         1 UNK         0.1334 
     82 H82        33.2498   25.8897   -0.5645 H         1 UNK         0.1417 
     83 H83        30.3813   28.9624    0.3256 H         1 UNK         0.1562 
     84 H84        31.5519   26.6453   -2.2881 H         1 UNK         0.0748 
     85 H85        32.5038   28.1077   -2.2059 H         1 UNK         0.0748 
     86 H86        28.9132   27.3715   -0.6809 H         1 UNK         0.0940 
     87 H87        28.8660   26.5891   -2.2291 H         1 UNK         0.0940 
     88 H88        27.2079   28.1577   -3.0819 H         1 UNK         0.0703 
     89 H89        26.6424   26.6923   -0.6157 H         1 UNK         0.3081 
     90 H90        24.0699   26.6076    0.0049 H         1 UNK         0.0719 
     91 H91        22.8958   25.4491   -2.5736 H         1 UNK         0.0809 
     92 H92        22.2100   25.2736   -0.9574 H         1 UNK         0.0809 
     93 H93        22.2935   26.8560   -1.7074 H         1 UNK         0.0809 
     94 H94        24.4431   24.0461   -1.2301 H         1 UNK         0.2990 
     95 H95        25.5545   22.5201    0.5001 H         1 UNK         0.0690 
     96 H96        27.3211   21.6052   -1.0725 H         1 UNK         0.0788 
     97 H97        27.7587   23.2483   -1.5336 H         1 UNK         0.0788 
     98 H98        26.1702   22.6077   -1.9353 H         1 UNK         0.0788 
     99 H99        27.8932   24.0004    1.3352 H         1 UNK         0.2993 
    100 H100       28.5468   21.8989    3.9605 H         1 UNK         0.0949 
    101 H101       30.9299   21.6026    3.3663 H         1 UNK         0.0767 
    102 H102       29.9452   20.4783    2.4484 H         1 UNK         0.0767 
    103 H103       30.5809   21.9191    1.6656 H         1 UNK         0.0767 
    104 H104       30.0832   24.0445    2.7550 H         1 UNK         0.3013 
    105 H105       27.0577   28.9082    0.4197 H         1 UNK         0.3121 
    106 H106       26.7639   30.7400    1.6303 H         1 UNK         0.0774 
    107 H107       25.1233   32.4152    0.8436 H         1 UNK         0.0815 
    108 H108       25.2585   31.8262   -0.8058 H         1 UNK         0.0815 
    109 H109       24.5772   30.7934    0.4497 H         1 UNK         0.0815 
    110 H110       29.2192   30.7687    1.1809 H         1 UNK         0.2987 
    111 H111       30.0767   33.4275    0.0952 H         1 UNK         0.0949 
    112 H112       31.7939   30.8999    0.3808 H         1 UNK         0.0806 
    113 H113       30.9853   31.3494   -1.1220 H         1 UNK         0.0806 
    114 H114       32.2165   32.3910   -0.4371 H         1 UNK         0.0806 
    115 H115       32.2179   34.0737    1.2030 H         1 UNK         0.3010 
    116 H116       31.9231   34.0456    4.1427 H         1 UNK         0.0829 
    117 H117       32.3786   36.2043    3.0135 H         1 UNK         0.0813 
    118 H118       33.7405   35.7488    4.0237 H         1 UNK         0.0813 
    119 H119       33.8420   35.5498    2.2798 H         1 UNK         0.0813 
    120 H120       32.2774   31.6632    4.1704 H         1 UNK         0.3038 
    121 H121       34.9958   30.9223    4.7461 H         1 UNK         0.0769 
    122 H122       33.5735   29.6619    2.3155 H         1 UNK         0.0811 
    123 H123       35.0545   29.0419    3.0322 H         1 UNK         0.0811 
    124 H124       35.0522   30.6104    2.2551 H         1 UNK         0.0811 
    125 H125       34.8324   28.3028    5.1370 H         1 UNK         0.3204 
    126 H126       32.2147   27.3801    5.8934 H         1 UNK         0.0748 
    127 H127       32.7879   28.6140    7.9896 H         1 UNK         0.0771 
    128 H128       32.8277   26.8829    8.2767 H         1 UNK         0.0771 
    129 H129       34.3348   27.7725    8.0859 H         1 UNK         0.0771 
    130 H130       32.1607   25.1467    6.0057 H         1 UNK         0.2980 
    131 H131       34.4230   23.4884    6.2621 H         1 UNK         0.0545 
    132 H132       30.7182   22.1666    6.6847 H         1 UNK         0.3459 
    133 H133       31.0254   23.8650    6.4342 H         1 UNK         0.3459 
    134 H134       34.4460   22.3511    4.0121 H         1 UNK         0.0616 
    135 H135       35.1049   23.9453    4.0187 H         1 UNK         0.0616 
    136 H136       34.5248   24.8783    1.2214 H         1 UNK         0.0634 
    137 H137       34.5458   25.7308    2.7489 H         1 UNK         0.0634 
@<TRIPOS>BOND
     1    1    2 1    
     2    1   72 1    
     3    1   73 1    
     4    1   74 1    
     5    2    3 2    
     6    2    4 am   BACKBONE|DICT|INTERRES
     7    4    5 1    
     8    4   75 1    
     9    5    6 1    
    10    5   35 1    
    11    5   76 1    
    12    6    7 1    
    13    6   77 1    
    14    6   78 1    
    15    7    8 1    
    16    8    9 1    
    17    8   79 1    
    18    8   80 1    
    19    9   10 ar   
    20    9   14 ar   
    21   10   11 ar   
    22   10   81 1    
    23   11   12 ar   
    24   11   71 1    
    25   12   13 ar   
    26   12   82 1    
    27   13   14 ar   
    28   13   15 1    
    29   14   83 1    
    30   15   16 1    
    31   15   84 1    
    32   15   85 1    
    33   16   17 1    
    34   17   18 1    
    35   17   86 1    
    36   17   87 1    
    37   18   19 1    
    38   18   37 1    
    39   18   88 1    
    40   19   20 am   BACKBONE|DICT|INTERRES
    41   19   89 1    
    42   20   21 2    
    43   20   22 1    
    44   22   23 1    
    45   22   24 1    
    46   22   90 1    
    47   23   91 1    
    48   23   92 1    
    49   23   93 1    
    50   24   25 am   BACKBONE|DICT|INTERRES
    51   24   94 1    
    52   25   26 2    
    53   25   27 1    
    54   27   28 1    
    55   27   29 1    
    56   27   95 1    
    57   28   96 1    
    58   28   97 1    
    59   28   98 1    
    60   29   30 am   BACKBONE|DICT|INTERRES
    61   29   99 1    
    62   30   31 2    
    63   30   32 1    
    64   32   33 1    
    65   32   34 1    
    66   32  100 1    
    67   33  101 1    
    68   33  102 1    
    69   33  103 1    
    70   34   35 am   BACKBONE|DICT|INTERRES
    71   34  104 1    
    72   35   36 2    
    73   37   38 2    
    74   37   39 am   BACKBONE|DICT|INTERRES
    75   39   40 1    
    76   39  105 1    
    77   40   41 1    
    78   40   42 1    
    79   40  106 1    
    80   41  107 1    
    81   41  108 1    
    82   41  109 1    
    83   42   43 2    
    84   42   44 am   BACKBONE|DICT|INTERRES
    85   44   45 1    
    86   44  110 1    
    87   45   46 1    
    88   45   47 1    
    89   45  111 1    
    90   46  112 1    
    91   46  113 1    
    92   46  114 1    
    93   47   48 2    
    94   47   49 am   BACKBONE|DICT|INTERRES
    95   49   50 1    
    96   49  115 1    
    97   50   51 1    
    98   50   52 1    
    99   50  116 1    
   100   51  117 1    
   101   51  118 1    
   102   51  119 1    
   103   52   53 2    
   104   52   54 am   BACKBONE|DICT|INTERRES
   105   54   55 1    
   106   54  120 1    
   107   55   56 1    
   108   55   57 1    
   109   55  121 1    
   110   56  122 1    
   111   56  123 1    
   112   56  124 1    
   113   57   58 2    
   114   57   59 am   BACKBONE|DICT|INTERRES
   115   59   60 1    
   116   59  125 1    
   117   60   61 1    
   118   60   62 1    
   119   60  126 1    
   120   61  127 1    
   121   61  128 1    
   122   61  129 1    
   123   62   63 2    
   124   62   64 am   BACKBONE|DICT|INTERRES
   125   64   65 1    
   126   64  130 1    
   127   65   66 1    
   128   65   69 1    
   129   65  131 1    
   130   66   67 am   BACKBONE|DICT|INTERRES
   131   66   68 2    
   132   67  132 1    
   133   67  133 1    
   134   69   70 1    
   135   69  134 1    
   136   69  135 1    
   137   70   71 1    
   138   71  136 1    
   139   71  137 1    
@<TRIPOS>SUBSTRUCTURE
     1 UNK         1 GROUP             0       ****    0 ROOT    
