@<TRIPOS>MOLECULE
3R136
137   139    1
SMALL
USER_CHARGES


@<TRIPOS>ATOM
      1 CA         23.8619   22.3002    4.2889 C.3       0 UNK        -0.1979 
      2 C          24.7799   21.7744    3.1949 C.2       0 UNK         0.4864 
      3 O          24.4532   20.7762    2.5502 O.2       0 UNK        -0.5359 
      4 N          25.9276   22.4337    2.9884 N.am      1 UNK        -0.4318 
      5 CA         26.8940   22.1177    1.9308 C.3       1 UNK         0.0824 
      6 C6         28.2961   22.6888    2.2647 C.3       12 UNK        -0.0944 
      7 S7         29.6441   21.7069    1.5314 S.3       12 UNK        -0.2672 
      8 C8         31.0517   22.1190    2.6249 C.3       12 UNK         0.0333 
      9 C9         31.7499   23.4428    2.3067 C.ar      12 UNK        -0.0807 
     10 C10        32.3573   24.1676    3.3399 C.ar      12 UNK        -0.0894 
     11 C11        33.0799   25.3347    3.0666 C.ar      12 UNK        -0.0804 
     12 C12        33.1746   25.7912    1.7487 C.ar      12 UNK        -0.0824 
     13 C13        32.5699   25.0838    0.7067 C.ar      12 UNK        -0.0762 
     14 C14        31.8695   23.9078    0.9911 C.ar      12 UNK        -0.0782 
     15 C15        32.7092   25.5646   -0.7324 C.3       12 UNK         0.0230 
     16 S16        31.6956   27.0362   -1.0896 S.3       12 UNK        -0.2608 
     17 C17        30.0010   26.4057   -0.8313 C.3       12 UNK        -0.0989 
     18 CA         29.1218   27.3018    0.0777 C.3       5 UNK         0.0716 
     19 N          27.7147   26.8973   -0.0191 N.am      5 UNK        -0.4135 
     20 C          26.6670   27.6117    0.4226 C.2       4 UNK         0.5031 
     21 O          26.7769   28.6909    1.0065 O.2       4 UNK        -0.5229 
     22 CA         25.2642   27.0174    0.1676 C.3       4 UNK         0.0329 
     23 CB         24.1380   28.0704    0.2447 C.3       4 UNK        -0.2001 
     24 N          25.1866   26.2519   -1.0828 N.am      4 UNK        -0.4303 
     25 C          25.4281   26.7013   -2.3265 C.2       3 UNK         0.5044 
     26 O          25.6215   27.8875   -2.5972 O.2       3 UNK        -0.5152 
     27 CA         25.4889   25.6519   -3.4603 C.3       3 UNK         0.0319 
     28 CB         26.5439   26.0175   -4.5267 C.3       3 UNK        -0.2001 
     29 N          25.6888   24.2660   -3.0076 N.am      3 UNK        -0.4354 
     30 C          26.7069   23.7895   -2.2753 C.2       2 UNK         0.4964 
     31 O          27.6438   24.4738   -1.8575 O.2       2 UNK        -0.5047 
     32 CA         26.6402   22.2956   -1.9183 C.3       2 UNK         0.0288 
     33 CB         27.5920   21.4898   -2.8167 C.3       2 UNK        -0.2113 
     34 N          26.9660   22.0293   -0.5142 N.am      2 UNK        -0.4145 
     35 C          26.3852   22.5961    0.5531 C.2       1 UNK         0.5006 
     36 O          25.5035   23.4598    0.4817 O.2       1 UNK        -0.5103 
     37 C          29.6362   27.3771    1.5356 C.2       5 UNK         0.5055 
     38 O          30.5523   28.1533    1.8080 O.2       5 UNK        -0.5220 
     39 N          29.0260   26.6110    2.4532 N.am      6 UNK        -0.4450 
     40 CA         29.3272   26.6304    3.8855 C.3       6 UNK         0.0367 
     41 CB         28.8071   25.3462    4.5511 C.3       6 UNK        -0.1929 
     42 C          28.7922   27.9023    4.5687 C.2       6 UNK         0.5070 
     43 O          27.7429   27.8631    5.2141 O.2       6 UNK        -0.5237 
     44 N          29.5241   29.0060    4.4072 N.am      7 UNK        -0.4739 
     45 CA         29.2869   30.2969    5.0408 C.3       7 UNK         0.0276 
     46 CB         28.5127   31.2087    4.0749 C.3       7 UNK        -0.1927 
     47 C          30.6491   30.9018    5.3866 C.2       7 UNK         0.5013 
     48 O          31.5875   30.7623    4.5982 O.2       7 UNK        -0.5193 
     49 N          30.7354   31.5937    6.5311 N.am      8 UNK        -0.4253 
     50 CA         31.9716   32.1693    7.0816 C.3       8 UNK         0.0242 
     51 CB         31.6640   32.8499    8.4249 C.3       8 UNK        -0.2000 
     52 C          32.7080   33.1431    6.1436 C.2       8 UNK         0.4948 
     53 O          33.9358   33.2122    6.1939 O.2       8 UNK        -0.5275 
     54 N          31.9578   33.8379    5.2769 N.am      9 UNK        -0.4246 
     55 CA         32.4852   34.7114    4.2254 C.3       9 UNK         0.0261 
     56 CB         31.3220   35.4850    3.5831 C.3       9 UNK        -0.1959 
     57 C          33.2969   33.9683    3.1456 C.2       9 UNK         0.5033 
     58 O          34.1659   34.5859    2.5280 O.2       9 UNK        -0.5390 
     59 N          33.0077   32.6765    2.9358 N.am      10 UNK        -0.4215 
     60 CA         33.7323   31.7992    2.0179 C.3       10 UNK         0.0240 
     61 CB         32.7290   30.9272    1.2445 C.3       10 UNK        -0.1982 
     62 C          34.7364   30.9216    2.7780 C.2       10 UNK         0.4970 
     63 O          35.8760   30.7889    2.3296 O.2       10 UNK        -0.4916 
     64 N          34.2992   30.3312    3.8981 N.am      11 UNK        -0.4279 
     65 CA         35.0919   29.3916    4.7058 C.3       11 UNK         0.1003 
     66 C          36.2259   30.0466    5.5425 C.2       11 UNK         0.5709 
     67 N          36.1650   31.3326    5.8658 N.am      11 UNK        -0.7358 
     68 O          37.1894   29.3718    5.8979 O.2       11 UNK        -0.4999 
     69 C69        34.1985   28.4877    5.5959 C.3       12 UNK        -0.0954 
     70 S70        32.9220   27.6035    4.6419 S.3       12 UNK        -0.2268 
     71 C71        33.8020   26.0838    4.1788 C.3       12 UNK         0.0203 
     72 H72        24.2897   23.1611    4.8024 H         1 UNK         0.0888 
     73 H73        22.9054   22.6008    3.8623 H         1 UNK         0.0888 
     74 H74        23.6761   21.5225    5.0293 H         1 UNK         0.0888 
     75 H75        26.1201   23.2643    3.5280 H         1 UNK         0.3017 
     76 H76        26.9678   21.0282    1.8904 H         1 UNK         0.0873 
     77 H77        28.3987   23.7339    1.9676 H         1 UNK         0.0745 
     78 H78        28.4409   22.6550    3.3445 H         1 UNK         0.0745 
     79 H79        30.7168   22.1016    3.6631 H         1 UNK         0.0705 
     80 H80        31.7921   21.3234    2.5332 H         1 UNK         0.0705 
     81 H81        32.2934   23.8069    4.3575 H         1 UNK         0.1334 
     82 H82        33.7246   26.6973    1.5329 H         1 UNK         0.1417 
     83 H83        31.4299   23.3455    0.1791 H         1 UNK         0.1562 
     84 H84        32.4437   24.7721   -1.4339 H         1 UNK         0.0748 
     85 H85        33.7550   25.8044   -0.9295 H         1 UNK         0.0748 
     86 H86        30.0194   25.3833   -0.4530 H         1 UNK         0.0940 
     87 H87        29.5484   26.3392   -1.8220 H         1 UNK         0.0940 
     88 H88        29.1751   28.3188   -0.3173 H         1 UNK         0.0703 
     89 H89        27.5372   26.0370   -0.5289 H         1 UNK         0.3081 
     90 H90        25.0950   26.2981    0.9704 H         1 UNK         0.0719 
     91 H91        23.1609   27.6199    0.0708 H         1 UNK         0.0809 
     92 H92        24.2761   28.8670   -0.4869 H         1 UNK         0.0809 
     93 H93        24.1069   28.5378    1.2297 H         1 UNK         0.0809 
     94 H94        25.0566   25.2545   -0.9623 H         1 UNK         0.2990 
     95 H95        24.5100   25.6763   -3.9410 H         1 UNK         0.0690 
     96 H96        26.3258   26.9840   -4.9827 H         1 UNK         0.0788 
     97 H97        26.5672   25.2820   -5.3308 H         1 UNK         0.0788 
     98 H98        27.5454   26.0788   -4.0991 H         1 UNK         0.0788 
     99 H99        24.9590   23.6205   -3.2785 H         1 UNK         0.2993 
    100 H100       25.6212   21.9393   -2.0831 H         1 UNK         0.0949 
    101 H101       28.6322   21.7807   -2.6619 H         1 UNK         0.0767 
    102 H102       27.5099   20.4195   -2.6260 H         1 UNK         0.0767 
    103 H103       27.3629   21.6481   -3.8716 H         1 UNK         0.0767 
    104 H104       27.7217   21.3794   -0.3489 H         1 UNK         0.3013 
    105 H105       28.2457   26.0461    2.1581 H         1 UNK         0.3121 
    106 H106       30.4097   26.6240    4.0019 H         1 UNK         0.0774 
    107 H107       29.3912   24.4872    4.2274 H         1 UNK         0.0815 
    108 H108       28.9081   25.3995    5.6361 H         1 UNK         0.0815 
    109 H109       27.7557   25.1638    4.3289 H         1 UNK         0.0815 
    110 H110       30.3626   28.9537    3.8344 H         1 UNK         0.2987 
    111 H111       28.7128   30.1609    5.9602 H         1 UNK         0.0949 
    112 H112       29.0662   31.3756    3.1494 H         1 UNK         0.0806 
    113 H113       27.5482   30.7745    3.8101 H         1 UNK         0.0806 
    114 H114       28.3188   32.1837    4.5235 H         1 UNK         0.0806 
    115 H115       29.9092   31.6799    7.1060 H         1 UNK         0.3010 
    116 H116       32.6540   31.3379    7.2709 H         1 UNK         0.0829 
    117 H117       32.5699   33.2668    8.8679 H         1 UNK         0.0813 
    118 H118       30.9516   33.6679    8.3101 H         1 UNK         0.0813 
    119 H119       31.2520   32.1424    9.1447 H         1 UNK         0.0813 
    120 H120       30.9559   33.7194    5.3133 H         1 UNK         0.3038 
    121 H121       33.1564   35.4316    4.6983 H         1 UNK         0.0769 
    122 H122       31.6856   36.1669    2.8130 H         1 UNK         0.0811 
    123 H123       30.7894   36.0868    4.3197 H         1 UNK         0.0811 
    124 H124       30.6026   34.8147    3.1108 H         1 UNK         0.0811 
    125 H125       32.3138   32.2263    3.5252 H         1 UNK         0.3204 
    126 H126       34.2897   32.3918    1.2893 H         1 UNK         0.0748 
    127 H127       33.2418   30.2509    0.5592 H         1 UNK         0.0771 
    128 H128       32.1261   30.3129    1.9143 H         1 UNK         0.0771 
    129 H129       32.0486   31.5375    0.6508 H         1 UNK         0.0771 
    130 H130       33.3308   30.4560    4.1836 H         1 UNK         0.2980 
    131 H131       35.5991   28.7299    4.0010 H         1 UNK         0.0545 
    132 H132       35.3499   31.8964    5.6528 H         1 UNK         0.3459 
    133 H133       36.9164   31.7350    6.4020 H         1 UNK         0.3459 
    134 H134       34.8002   27.7561    6.1385 H         1 UNK         0.0616 
    135 H135       33.6909   29.0890    6.3522 H         1 UNK         0.0616 
    136 H136       34.8094   26.3352    3.8443 H         1 UNK         0.0634 
    137 H137       33.9167   25.4534    5.0617 H         1 UNK         0.0634 
@<TRIPOS>BOND
     1    1    2 1    
     2    1   72 1    
     3    1   73 1    
     4    1   74 1    
     5    2    3 2    
     6    2    4 am   BACKBONE|DICT|INTERRES
     7    4    5 1    
     8    4   75 1    
     9    5    6 1    
    10    5   35 1    
    11    5   76 1    
    12    6    7 1    
    13    6   77 1    
    14    6   78 1    
    15    7    8 1    
    16    8    9 1    
    17    8   79 1    
    18    8   80 1    
    19    9   10 ar   
    20    9   14 ar   
    21   10   11 ar   
    22   10   81 1    
    23   11   12 ar   
    24   11   71 1    
    25   12   13 ar   
    26   12   82 1    
    27   13   14 ar   
    28   13   15 1    
    29   14   83 1    
    30   15   16 1    
    31   15   84 1    
    32   15   85 1    
    33   16   17 1    
    34   17   18 1    
    35   17   86 1    
    36   17   87 1    
    37   18   19 1    
    38   18   37 1    
    39   18   88 1    
    40   19   20 am   BACKBONE|DICT|INTERRES
    41   19   89 1    
    42   20   21 2    
    43   20   22 1    
    44   22   23 1    
    45   22   24 1    
    46   22   90 1    
    47   23   91 1    
    48   23   92 1    
    49   23   93 1    
    50   24   25 am   BACKBONE|DICT|INTERRES
    51   24   94 1    
    52   25   26 2    
    53   25   27 1    
    54   27   28 1    
    55   27   29 1    
    56   27   95 1    
    57   28   96 1    
    58   28   97 1    
    59   28   98 1    
    60   29   30 am   BACKBONE|DICT|INTERRES
    61   29   99 1    
    62   30   31 2    
    63   30   32 1    
    64   32   33 1    
    65   32   34 1    
    66   32  100 1    
    67   33  101 1    
    68   33  102 1    
    69   33  103 1    
    70   34   35 am   BACKBONE|DICT|INTERRES
    71   34  104 1    
    72   35   36 2    
    73   37   38 2    
    74   37   39 am   BACKBONE|DICT|INTERRES
    75   39   40 1    
    76   39  105 1    
    77   40   41 1    
    78   40   42 1    
    79   40  106 1    
    80   41  107 1    
    81   41  108 1    
    82   41  109 1    
    83   42   43 2    
    84   42   44 am   BACKBONE|DICT|INTERRES
    85   44   45 1    
    86   44  110 1    
    87   45   46 1    
    88   45   47 1    
    89   45  111 1    
    90   46  112 1    
    91   46  113 1    
    92   46  114 1    
    93   47   48 2    
    94   47   49 am   BACKBONE|DICT|INTERRES
    95   49   50 1    
    96   49  115 1    
    97   50   51 1    
    98   50   52 1    
    99   50  116 1    
   100   51  117 1    
   101   51  118 1    
   102   51  119 1    
   103   52   53 2    
   104   52   54 am   BACKBONE|DICT|INTERRES
   105   54   55 1    
   106   54  120 1    
   107   55   56 1    
   108   55   57 1    
   109   55  121 1    
   110   56  122 1    
   111   56  123 1    
   112   56  124 1    
   113   57   58 2    
   114   57   59 am   BACKBONE|DICT|INTERRES
   115   59   60 1    
   116   59  125 1    
   117   60   61 1    
   118   60   62 1    
   119   60  126 1    
   120   61  127 1    
   121   61  128 1    
   122   61  129 1    
   123   62   63 2    
   124   62   64 am   BACKBONE|DICT|INTERRES
   125   64   65 1    
   126   64  130 1    
   127   65   66 1    
   128   65   69 1    
   129   65  131 1    
   130   66   67 am   BACKBONE|DICT|INTERRES
   131   66   68 2    
   132   67  132 1    
   133   67  133 1    
   134   69   70 1    
   135   69  134 1    
   136   69  135 1    
   137   70   71 1    
   138   71  136 1    
   139   71  137 1    
@<TRIPOS>SUBSTRUCTURE
     1 UNK         1 GROUP             0       ****    0 ROOT    
