@<TRIPOS>MOLECULE
3R136
137   139    1
SMALL
USER_CHARGES


@<TRIPOS>ATOM
      1 CA         26.2185   21.6934    0.4441 C.3       0 UNK        -0.1979 
      2 C          26.9735   21.8235   -0.8765 C.2       0 UNK         0.4864 
      3 O          26.3683   21.6150   -1.9264 O.2       0 UNK        -0.5359 
      4 N          28.2750   22.1489   -0.9018 N.am      1 UNK        -0.4318 
      5 CA         29.1873   22.4659    0.2051 C.3       1 UNK         0.0824 
      6 C6         29.3840   21.2872    1.2033 C.3       12 UNK        -0.0944 
      7 S7         30.9137   21.2743    2.2118 S.3       12 UNK        -0.2672 
      8 C8         32.2628   21.7986    1.0954 C.3       12 UNK         0.0333 
      9 C9         32.4719   23.3095    1.1042 C.ar      12 UNK        -0.0807 
     10 C10        32.7844   23.9633    2.3001 C.ar      12 UNK        -0.0894 
     11 C11        32.9800   25.3462    2.3269 C.ar      12 UNK        -0.0804 
     12 C12        32.8564   26.0831    1.1452 C.ar      12 UNK        -0.0824 
     13 C13        32.5532   25.4413   -0.0607 C.ar      12 UNK        -0.0762 
     14 C14        32.3783   24.0540   -0.0770 C.ar      12 UNK        -0.0782 
     15 C15        32.4275   26.2402   -1.3518 C.3       12 UNK         0.0230 
     16 S16        30.6884   26.5583   -1.7953 S.3       12 UNK        -0.2608 
     17 C17        30.2093   27.7101   -0.4675 C.3       12 UNK        -0.0989 
     18 CA         28.8041   28.3431   -0.6555 C.3       5 UNK         0.0716 
     19 N          27.7595   27.3177   -0.7630 N.am      5 UNK        -0.4135 
     20 C          26.5362   27.4766   -1.2860 C.2       4 UNK         0.5031 
     21 O          26.1402   28.5303   -1.7860 O.2       4 UNK        -0.5229 
     22 CA         25.5726   26.2890   -1.1620 C.3       4 UNK         0.0329 
     23 CB         25.8927   25.2081   -2.2071 C.3       4 UNK        -0.2001 
     24 N          25.6354   25.7202    0.1858 N.am      4 UNK        -0.4303 
     25 C          24.9229   26.1668    1.2308 C.2       3 UNK         0.5044 
     26 O          24.0598   27.0409    1.1459 O.2       3 UNK        -0.5152 
     27 CA         25.2138   25.5380    2.6079 C.3       3 UNK         0.0319 
     28 CB         24.2670   24.3557    2.8698 C.3       3 UNK        -0.2001 
     29 N          26.6014   25.0943    2.7690 N.am      3 UNK        -0.4354 
     30 C          27.6554   25.9189    2.8579 C.2       2 UNK         0.4964 
     31 O          27.5610   27.1439    2.8881 O.2       2 UNK        -0.5047 
     32 CA         29.0533   25.2718    2.8899 C.3       2 UNK         0.0288 
     33 CB         29.4959   25.0307    4.3416 C.3       2 UNK        -0.2113 
     34 N          29.1803   24.0176    2.1330 N.am      2 UNK        -0.4145 
     35 C          28.8688   23.8382    0.8414 C.2       1 UNK         0.5006 
     36 O          28.3385   24.7091    0.1503 O.2       1 UNK        -0.5103 
     37 C          28.4936   29.3504    0.4790 C.2       5 UNK         0.5055 
     38 O          29.3803   29.6573    1.2755 O.2       5 UNK        -0.5220 
     39 N          27.2484   29.8437    0.5495 N.am      6 UNK        -0.4450 
     40 CA         26.6819   30.6135    1.6639 C.3       6 UNK         0.0367 
     41 CB         25.2158   30.9501    1.3508 C.3       6 UNK        -0.1929 
     42 C          27.4607   31.8862    2.0401 C.2       6 UNK         0.5070 
     43 O          27.5138   32.2389    3.2181 O.2       6 UNK        -0.5237 
     44 N          28.0802   32.5311    1.0432 N.am      7 UNK        -0.4739 
     45 CA         28.9353   33.7091    1.2129 C.3       7 UNK         0.0276 
     46 CB         29.1333   34.3779   -0.1576 C.3       7 UNK        -0.1927 
     47 C          30.3001   33.4078    1.8648 C.2       7 UNK         0.5013 
     48 O          30.9609   34.3463    2.3115 O.2       7 UNK        -0.5193 
     49 N          30.7079   32.1318    1.8986 N.am      8 UNK        -0.4253 
     50 CA         31.9927   31.6643    2.4214 C.3       8 UNK         0.0242 
     51 CB         32.8930   31.2630    1.2373 C.3       8 UNK        -0.2000 
     52 C          31.8127   30.5047    3.4160 C.2       8 UNK         0.4948 
     53 O          32.7665   29.7604    3.6434 O.2       8 UNK        -0.5275 
     54 N          30.6127   30.3654    4.0024 N.am      9 UNK        -0.4246 
     55 CA         30.1943   29.2376    4.8472 C.3       9 UNK         0.0261 
     56 CB         28.7188   29.4180    5.2342 C.3       9 UNK        -0.1959 
     57 C          31.0503   29.0003    6.1052 C.2       9 UNK         0.5033 
     58 O          31.0936   27.8719    6.5964 O.2       9 UNK        -0.5390 
     59 N          31.7295   30.0498    6.5905 N.am      10 UNK        -0.4215 
     60 CA         32.7179   29.9829    7.6712 C.3       10 UNK         0.0240 
     61 CB         33.0769   31.4104    8.1153 C.3       10 UNK        -0.1982 
     62 C          33.9914   29.2007    7.2914 C.2       10 UNK         0.4970 
     63 O          34.6674   28.6941    8.1872 O.2       10 UNK        -0.4916 
     64 N          34.2878   29.1094    5.9866 N.am      11 UNK        -0.4279 
     65 CA         35.3869   28.3391    5.3871 C.3       11 UNK         0.1003 
     66 C          36.8265   28.8382    5.7194 C.2       11 UNK         0.5709 
     67 N          37.0011   30.0449    6.2454 N.am      11 UNK        -0.7358 
     68 O          37.8060   28.1411    5.4647 O.2       11 UNK        -0.4999 
     69 C69        35.1857   26.8017    5.5702 C.3       12 UNK        -0.0954 
     70 S70        35.1122   25.9274    3.9747 S.3       12 UNK        -0.2268 
     71 C71        33.3282   26.0360    3.6354 C.3       12 UNK         0.0203 
     72 H72        26.3806   20.7056    0.8742 H         1 UNK         0.0888 
     73 H73        26.5097   22.4450    1.1722 H         1 UNK         0.0888 
     74 H74        25.1481   21.8084    0.2746 H         1 UNK         0.0888 
     75 H75        28.6978   22.2481   -1.8140 H         1 UNK         0.3017 
     76 H76        30.1267   22.6165   -0.3161 H         1 UNK         0.0873 
     77 H77        28.5396   21.2116    1.8892 H         1 UNK         0.0745 
     78 H78        29.3860   20.3482    0.6471 H         1 UNK         0.0745 
     79 H79        33.1866   21.3269    1.4333 H         1 UNK         0.0705 
     80 H80        32.0847   21.4178    0.0888 H         1 UNK         0.0705 
     81 H81        32.8778   23.3925    3.2141 H         1 UNK         0.1334 
     82 H82        33.0025   27.1548    1.1650 H         1 UNK         0.1417 
     83 H83        32.1597   23.5604   -1.0142 H         1 UNK         0.1562 
     84 H84        32.9025   25.6915   -2.1664 H         1 UNK         0.0748 
     85 H85        32.9634   27.1876   -1.2737 H         1 UNK         0.0748 
     86 H86        30.9717   28.4899   -0.4154 H         1 UNK         0.0940 
     87 H87        30.2547   27.1738    0.4812 H         1 UNK         0.0940 
     88 H88        28.8165   28.9135   -1.5864 H         1 UNK         0.0703 
     89 H89        28.0055   26.4025   -0.3905 H         1 UNK         0.3081 
     90 H90        24.5604   26.6511   -1.3552 H         1 UNK         0.0719 
     91 H91        26.9048   24.8173   -2.0987 H         1 UNK         0.0809 
     92 H92        25.2014   24.3685   -2.1326 H         1 UNK         0.0809 
     93 H93        25.8073   25.6090   -3.2178 H         1 UNK         0.0809 
     94 H94        26.3868   25.0621    0.3550 H         1 UNK         0.2990 
     95 H95        25.0175   26.3024    3.3631 H         1 UNK         0.0690 
     96 H96        24.4141   23.9415    3.8675 H         1 UNK         0.0788 
     97 H97        24.4087   23.5525    2.1464 H         1 UNK         0.0788 
     98 H98        23.2247   24.6712    2.8033 H         1 UNK         0.0788 
     99 H99        26.7675   24.0998    2.7934 H         1 UNK         0.2993 
    100 H100       29.7465   25.9856    2.4415 H         1 UNK         0.0949 
    101 H101       29.4686   25.9566    4.9184 H         1 UNK         0.0767 
    102 H102       28.8496   24.3117    4.8463 H         1 UNK         0.0767 
    103 H103       30.5168   24.6528    4.3885 H         1 UNK         0.0767 
    104 H104       29.6403   23.2512    2.6082 H         1 UNK         0.3013 
    105 H105       26.6044   29.5579   -0.1821 H         1 UNK         0.3121 
    106 H106       26.6957   29.9573    2.5356 H         1 UNK         0.0774 
    107 H107       24.7567   31.5003    2.1733 H         1 UNK         0.0815 
    108 H108       25.1254   31.5652    0.4547 H         1 UNK         0.0815 
    109 H109       24.6257   30.0455    1.1994 H         1 UNK         0.0815 
    110 H110       27.9883   32.1614    0.1078 H         1 UNK         0.2987 
    111 H111       28.4170   34.4147    1.8663 H         1 UNK         0.0949 
    112 H112       29.6432   33.7169   -0.8597 H         1 UNK         0.0806 
    113 H113       28.1802   34.6690   -0.5997 H         1 UNK         0.0806 
    114 H114       29.7352   35.2835   -0.0677 H         1 UNK         0.0806 
    115 H115       30.0933   31.4010    1.5444 H         1 UNK         0.3010 
    116 H116       32.4904   32.4626    2.9753 H         1 UNK         0.0829 
    117 H117       33.0287   32.0929    0.5437 H         1 UNK         0.0813 
    118 H118       33.8849   30.9631    1.5778 H         1 UNK         0.0813 
    119 H119       32.4702   30.4255    0.6808 H         1 UNK         0.0813 
    120 H120       29.8893   31.0252    3.7522 H         1 UNK         0.3038 
    121 H121       30.2748   28.3380    4.2330 H         1 UNK         0.0769 
    122 H122       28.5577   30.3326    5.8061 H         1 UNK         0.0811 
    123 H123       28.3674   28.5822    5.8409 H         1 UNK         0.0811 
    124 H124       28.0842   29.4575    4.3500 H         1 UNK         0.0811 
    125 H125       31.6170   30.9393    6.1267 H         1 UNK         0.3204 
    126 H126       32.2577   29.4656    8.5158 H         1 UNK         0.0748 
    127 H127       33.7930   31.3947    8.9384 H         1 UNK         0.0771 
    128 H128       33.5246   31.9867    7.3045 H         1 UNK         0.0771 
    129 H129       32.1969   31.9502    8.4658 H         1 UNK         0.0771 
    130 H130       33.6631   29.5341    5.3066 H         1 UNK         0.2980 
    131 H131       35.2910   28.5714    4.3260 H         1 UNK         0.0545 
    132 H132       36.2086   30.6314    6.4502 H         1 UNK         0.3459 
    133 H133       37.9351   30.3659    6.4461 H         1 UNK         0.3459 
    134 H134       35.9801   26.3551    6.1705 H         1 UNK         0.0616 
    135 H135       34.2678   26.5795    6.1170 H         1 UNK         0.0616 
    136 H136       32.7740   25.5787    4.4560 H         1 UNK         0.0634 
    137 H137       33.0265   27.0838    3.6057 H         1 UNK         0.0634 
@<TRIPOS>BOND
     1    1    2 1    
     2    1   72 1    
     3    1   73 1    
     4    1   74 1    
     5    2    3 2    
     6    2    4 am   BACKBONE|DICT|INTERRES
     7    4    5 1    
     8    4   75 1    
     9    5    6 1    
    10    5   35 1    
    11    5   76 1    
    12    6    7 1    
    13    6   77 1    
    14    6   78 1    
    15    7    8 1    
    16    8    9 1    
    17    8   79 1    
    18    8   80 1    
    19    9   10 ar   
    20    9   14 ar   
    21   10   11 ar   
    22   10   81 1    
    23   11   12 ar   
    24   11   71 1    
    25   12   13 ar   
    26   12   82 1    
    27   13   14 ar   
    28   13   15 1    
    29   14   83 1    
    30   15   16 1    
    31   15   84 1    
    32   15   85 1    
    33   16   17 1    
    34   17   18 1    
    35   17   86 1    
    36   17   87 1    
    37   18   19 1    
    38   18   37 1    
    39   18   88 1    
    40   19   20 am   BACKBONE|DICT|INTERRES
    41   19   89 1    
    42   20   21 2    
    43   20   22 1    
    44   22   23 1    
    45   22   24 1    
    46   22   90 1    
    47   23   91 1    
    48   23   92 1    
    49   23   93 1    
    50   24   25 am   BACKBONE|DICT|INTERRES
    51   24   94 1    
    52   25   26 2    
    53   25   27 1    
    54   27   28 1    
    55   27   29 1    
    56   27   95 1    
    57   28   96 1    
    58   28   97 1    
    59   28   98 1    
    60   29   30 am   BACKBONE|DICT|INTERRES
    61   29   99 1    
    62   30   31 2    
    63   30   32 1    
    64   32   33 1    
    65   32   34 1    
    66   32  100 1    
    67   33  101 1    
    68   33  102 1    
    69   33  103 1    
    70   34   35 am   BACKBONE|DICT|INTERRES
    71   34  104 1    
    72   35   36 2    
    73   37   38 2    
    74   37   39 am   BACKBONE|DICT|INTERRES
    75   39   40 1    
    76   39  105 1    
    77   40   41 1    
    78   40   42 1    
    79   40  106 1    
    80   41  107 1    
    81   41  108 1    
    82   41  109 1    
    83   42   43 2    
    84   42   44 am   BACKBONE|DICT|INTERRES
    85   44   45 1    
    86   44  110 1    
    87   45   46 1    
    88   45   47 1    
    89   45  111 1    
    90   46  112 1    
    91   46  113 1    
    92   46  114 1    
    93   47   48 2    
    94   47   49 am   BACKBONE|DICT|INTERRES
    95   49   50 1    
    96   49  115 1    
    97   50   51 1    
    98   50   52 1    
    99   50  116 1    
   100   51  117 1    
   101   51  118 1    
   102   51  119 1    
   103   52   53 2    
   104   52   54 am   BACKBONE|DICT|INTERRES
   105   54   55 1    
   106   54  120 1    
   107   55   56 1    
   108   55   57 1    
   109   55  121 1    
   110   56  122 1    
   111   56  123 1    
   112   56  124 1    
   113   57   58 2    
   114   57   59 am   BACKBONE|DICT|INTERRES
   115   59   60 1    
   116   59  125 1    
   117   60   61 1    
   118   60   62 1    
   119   60  126 1    
   120   61  127 1    
   121   61  128 1    
   122   61  129 1    
   123   62   63 2    
   124   62   64 am   BACKBONE|DICT|INTERRES
   125   64   65 1    
   126   64  130 1    
   127   65   66 1    
   128   65   69 1    
   129   65  131 1    
   130   66   67 am   BACKBONE|DICT|INTERRES
   131   66   68 2    
   132   67  132 1    
   133   67  133 1    
   134   69   70 1    
   135   69  134 1    
   136   69  135 1    
   137   70   71 1    
   138   71  136 1    
   139   71  137 1    
@<TRIPOS>SUBSTRUCTURE
     1 UNK         1 GROUP             0       ****    0 ROOT    
