@<TRIPOS>MOLECULE
3R136
137   139    1
SMALL
USER_CHARGES


@<TRIPOS>ATOM
      1 CA         26.4008   20.0145    2.3568 C.3       0 UNK        -0.1979 
      2 C          26.9452   21.2137    1.5970 C.2       0 UNK         0.4864 
      3 O          26.1849   22.1289    1.2766 O.2       0 UNK        -0.5359 
      4 N          28.2586   21.2293    1.3208 N.am      1 UNK        -0.4318 
      5 CA         28.9546   22.2861    0.5722 C.3       1 UNK         0.0824 
      6 C6         30.4470   21.9391    0.3370 C.3       12 UNK        -0.0944 
      7 S7         31.1386   22.7653   -1.1378 S.3       12 UNK        -0.2672 
      8 C8         32.7099   23.4438   -0.5111 C.3       12 UNK         0.0333 
      9 C9         32.4978   24.6874    0.3397 C.ar      12 UNK        -0.0807 
     10 C10        32.5144   24.6008    1.7343 C.ar      12 UNK        -0.0894 
     11 C11        32.3097   25.7400    2.5163 C.ar      12 UNK        -0.0804 
     12 C12        32.0773   26.9708    1.8963 C.ar      12 UNK        -0.0824 
     13 C13        32.0762   27.0770    0.5017 C.ar      12 UNK        -0.0762 
     14 C14        32.3003   25.9305   -0.2701 C.ar      12 UNK        -0.0782 
     15 C15        31.8376   28.4358   -0.1550 C.3       12 UNK         0.0230 
     16 S16        30.5962   28.4100   -1.4964 S.3       12 UNK        -0.2608 
     17 C17        29.2811   27.3787   -0.7668 C.3       12 UNK        -0.0989 
     18 CA         27.8603   27.6395   -1.3254 C.3       5 UNK         0.0716 
     19 N          27.0192   26.4676   -1.0838 N.am      5 UNK        -0.4135 
     20 C          25.8559   26.1921   -1.6835 C.2       4 UNK         0.5031 
     21 O          25.3599   26.8811   -2.5767 O.2       4 UNK        -0.5229 
     22 CA         25.1299   24.9177   -1.2154 C.3       4 UNK         0.0329 
     23 CB         25.6983   23.6799   -1.9282 C.3       4 UNK        -0.2001 
     24 N          25.2033   24.7167    0.2345 N.am      4 UNK        -0.4303 
     25 C          24.5598   25.4673    1.1410 C.2       3 UNK         0.5044 
     26 O          23.7899   26.3834    0.8505 O.2       3 UNK        -0.5152 
     27 CA         24.7992   25.1341    2.6224 C.3       3 UNK         0.0319 
     28 CB         23.8448   24.0229    3.0901 C.3       3 UNK        -0.2001 
     29 N          26.1828   24.7264    2.8715 N.am      3 UNK        -0.4354 
     30 C          27.1818   25.5754    3.1567 C.2       2 UNK         0.4964 
     31 O          27.0293   26.7877    3.3032 O.2       2 UNK        -0.5047 
     32 CA         28.5954   24.9809    3.3179 C.3       2 UNK         0.0288 
     33 CB         28.8780   24.6938    4.8021 C.3       2 UNK        -0.2113 
     34 N          28.8310   23.7599    2.5405 N.am      2 UNK        -0.4145 
     35 C          28.7717   23.6827    1.2023 C.2       1 UNK         0.5006 
     36 O          28.4938   24.6371    0.4799 O.2       1 UNK        -0.5103 
     37 C          27.2415   28.9209   -0.7264 C.2       5 UNK         0.5055 
     38 O          26.3388   28.8567    0.1109 O.2       5 UNK        -0.5220 
     39 N          27.7940   30.0728   -1.1288 N.am      6 UNK        -0.4450 
     40 CA         27.4830   31.3993   -0.5844 C.3       6 UNK         0.0367 
     41 CB         28.0419   32.4680   -1.5393 C.3       6 UNK        -0.1929 
     42 C          28.0145   31.6273    0.8471 C.2       6 UNK         0.5070 
     43 O          27.6537   32.6317    1.4607 O.2       6 UNK        -0.5237 
     44 N          28.8636   30.7109    1.3410 N.am      7 UNK        -0.4739 
     45 CA         29.4961   30.6967    2.6671 C.3       7 UNK         0.0276 
     46 CB         28.4431   30.5378    3.7843 C.3       7 UNK        -0.1927 
     47 C          30.4499   31.8867    2.8903 C.2       7 UNK         0.5013 
     48 O          30.4909   32.4555    3.9822 O.2       7 UNK        -0.5193 
     49 N          31.2094   32.2333    1.8403 N.am      8 UNK        -0.4253 
     50 CA         32.2645   33.2508    1.8749 C.3       8 UNK         0.0242 
     51 CB         32.6099   33.6680    0.4359 C.3       8 UNK        -0.2000 
     52 C          33.5281   32.7782    2.6196 C.2       8 UNK         0.4948 
     53 O          34.2613   33.6120    3.1535 O.2       8 UNK        -0.5275 
     54 N          33.7612   31.4583    2.6381 N.am      9 UNK        -0.4246 
     55 CA         34.8189   30.8011    3.4061 C.3       9 UNK         0.0261 
     56 CB         35.0489   29.3946    2.8278 C.3       9 UNK        -0.1959 
     57 C          34.4455   30.7144    4.8954 C.2       9 UNK         0.5033 
     58 O          33.2592   30.7253    5.2325 O.2       9 UNK        -0.5390 
     59 N          35.4632   30.5748    5.7568 N.am      10 UNK        -0.4215 
     60 CA         35.3432   30.5203    7.2219 C.3       10 UNK         0.0240 
     61 CB         36.7483   30.4239    7.8392 C.3       10 UNK        -0.1982 
     62 C          34.4402   29.3961    7.7684 C.2       10 UNK         0.4970 
     63 O          33.9054   29.5393    8.8686 O.2       10 UNK        -0.4916 
     64 N          34.2758   28.3165    6.9951 N.am      11 UNK        -0.4279 
     65 CA         33.3138   27.2349    7.2458 C.3       11 UNK         0.1003 
     66 C          31.8186   27.6201    7.0332 C.2       11 UNK         0.5709 
     67 N          31.4916   28.7580    6.4308 N.am      11 UNK        -0.7358 
     68 O          30.9340   26.8678    7.4338 O.2       11 UNK        -0.4999 
     69 C69        33.6997   25.9433    6.4755 C.3       12 UNK        -0.0954 
     70 S70        33.9466   26.1924    4.6829 S.3       12 UNK        -0.2268 
     71 C71        32.3422   25.6434    4.0315 C.3       12 UNK         0.0203 
     72 H72        25.6376   19.5123    1.7632 H         1 UNK         0.0888 
     73 H73        25.9458   20.3392    3.2921 H         1 UNK         0.0888 
     74 H74        27.1808   19.2903    2.5909 H         1 UNK         0.0888 
     75 H75        28.8295   20.4491    1.6142 H         1 UNK         0.3017 
     76 H76        28.4630   22.3188   -0.4023 H         1 UNK         0.0873 
     77 H77        31.0480   22.1527    1.2219 H         1 UNK         0.0745 
     78 H78        30.5561   20.8676    0.1614 H         1 UNK         0.0745 
     79 H79        33.2441   22.6746    0.0490 H         1 UNK         0.0705 
     80 H80        33.3458   23.6935   -1.3618 H         1 UNK         0.0705 
     81 H81        32.6901   23.6473    2.2129 H         1 UNK         0.1334 
     82 H82        31.9126   27.8468    2.5080 H         1 UNK         0.1417 
     83 H83        32.2976   26.0016   -1.3493 H         1 UNK         0.1562 
     84 H84        32.7825   28.8024   -0.5583 H         1 UNK         0.0748 
     85 H85        31.5190   29.1666    0.5884 H         1 UNK         0.0748 
     86 H86        29.2924   27.4485    0.3233 H         1 UNK         0.0940 
     87 H87        29.5746   26.3542   -0.9991 H         1 UNK         0.0940 
     88 H88        27.9260   27.7714   -2.4077 H         1 UNK         0.0703 
     89 H89        27.3689   25.8164   -0.3843 H         1 UNK         0.3081 
     90 H90        24.0772   25.0144   -1.4896 H         1 UNK         0.0719 
     91 H91        26.7531   23.5301   -1.6959 H         1 UNK         0.0809 
     92 H92        25.1614   22.7753   -1.6417 H         1 UNK         0.0809 
     93 H93        25.6132   23.7800   -3.0111 H         1 UNK         0.0809 
     94 H94        25.7574   23.9314    0.5632 H         1 UNK         0.2990 
     95 H95        24.5764   26.0306    3.2054 H         1 UNK         0.0690 
     96 H96        23.9741   23.8108    4.1515 H         1 UNK         0.0788 
     97 H97        24.0005   23.0936    2.5411 H         1 UNK         0.0788 
     98 H98        22.8047   24.3169    2.9429 H         1 UNK         0.0788 
     99 H99        26.3982   23.7499    2.7141 H         1 UNK         0.2993 
    100 H100       29.3052   25.7328    2.9662 H         1 UNK         0.0949 
    101 H101       28.8137   25.6081    5.3943 H         1 UNK         0.0767 
    102 H102       28.1615   23.9845    5.2185 H         1 UNK         0.0767 
    103 H103       29.8756   24.2834    4.9521 H         1 UNK         0.0767 
    104 H104       29.0294   22.9184    3.0614 H         1 UNK         0.3013 
    105 H105       28.5479   30.0281   -1.8016 H         1 UNK         0.3121 
    106 H106       26.3968   31.5061   -0.5459 H         1 UNK         0.0774 
    107 H107       29.1282   32.4103   -1.6201 H         1 UNK         0.0815 
    108 H108       27.7951   33.4719   -1.1906 H         1 UNK         0.0815 
    109 H109       27.6232   32.3649   -2.5405 H         1 UNK         0.0815 
    110 H110       29.0808   29.9285    0.7415 H         1 UNK         0.2987 
    111 H111       30.1246   29.8055    2.6974 H         1 UNK         0.0949 
    112 H112       27.7993   31.4139    3.8643 H         1 UNK         0.0806 
    113 H113       27.8085   29.6685    3.6090 H         1 UNK         0.0806 
    114 H114       28.9214   30.3978    4.7544 H         1 UNK         0.0806 
    115 H115       31.0679   31.7514    0.9650 H         1 UNK         0.3010 
    116 H116       31.8802   34.1268    2.4024 H         1 UNK         0.0829 
    117 H117       31.7377   34.0682   -0.0817 H         1 UNK         0.0813 
    118 H118       33.3736   34.4471    0.4295 H         1 UNK         0.0813 
    119 H119       32.9942   32.8310   -0.1486 H         1 UNK         0.0813 
    120 H120       33.0811   30.8545    2.2054 H         1 UNK         0.3038 
    121 H121       35.7386   31.3815    3.3051 H         1 UNK         0.0769 
    122 H122       34.1639   28.7667    2.9301 H         1 UNK         0.0811 
    123 H123       35.8665   28.8853    3.3396 H         1 UNK         0.0811 
    124 H124       35.3090   29.4362    1.7699 H         1 UNK         0.0811 
    125 H125       36.4032   30.5522    5.3871 H         1 UNK         0.3204 
    126 H126       34.8963   31.4644    7.5401 H         1 UNK         0.0748 
    127 H127       36.6972   30.4113    8.9291 H         1 UNK         0.0771 
    128 H128       37.2646   29.5151    7.5271 H         1 UNK         0.0771 
    129 H129       37.3665   31.2767    7.5578 H         1 UNK         0.0771 
    130 H130       34.7429   28.2832    6.1017 H         1 UNK         0.2980 
    131 H131       33.3895   26.9924    8.3074 H         1 UNK         0.0545 
    132 H132       30.5180   28.9866    6.3217 H         1 UNK         0.3459 
    133 H133       32.1999   29.4001    6.0844 H         1 UNK         0.3459 
    134 H134       32.9697   25.1494    6.6447 H         1 UNK         0.0616 
    135 H135       34.6388   25.5594    6.8764 H         1 UNK         0.0616 
    136 H136       32.1597   24.6166    4.3509 H         1 UNK         0.0634 
    137 H137       31.5430   26.2526    4.4548 H         1 UNK         0.0634 
@<TRIPOS>BOND
     1    1    2 1    
     2    1   72 1    
     3    1   73 1    
     4    1   74 1    
     5    2    3 2    
     6    2    4 am   BACKBONE|DICT|INTERRES
     7    4    5 1    
     8    4   75 1    
     9    5    6 1    
    10    5   35 1    
    11    5   76 1    
    12    6    7 1    
    13    6   77 1    
    14    6   78 1    
    15    7    8 1    
    16    8    9 1    
    17    8   79 1    
    18    8   80 1    
    19    9   10 ar   
    20    9   14 ar   
    21   10   11 ar   
    22   10   81 1    
    23   11   12 ar   
    24   11   71 1    
    25   12   13 ar   
    26   12   82 1    
    27   13   14 ar   
    28   13   15 1    
    29   14   83 1    
    30   15   16 1    
    31   15   84 1    
    32   15   85 1    
    33   16   17 1    
    34   17   18 1    
    35   17   86 1    
    36   17   87 1    
    37   18   19 1    
    38   18   37 1    
    39   18   88 1    
    40   19   20 am   BACKBONE|DICT|INTERRES
    41   19   89 1    
    42   20   21 2    
    43   20   22 1    
    44   22   23 1    
    45   22   24 1    
    46   22   90 1    
    47   23   91 1    
    48   23   92 1    
    49   23   93 1    
    50   24   25 am   BACKBONE|DICT|INTERRES
    51   24   94 1    
    52   25   26 2    
    53   25   27 1    
    54   27   28 1    
    55   27   29 1    
    56   27   95 1    
    57   28   96 1    
    58   28   97 1    
    59   28   98 1    
    60   29   30 am   BACKBONE|DICT|INTERRES
    61   29   99 1    
    62   30   31 2    
    63   30   32 1    
    64   32   33 1    
    65   32   34 1    
    66   32  100 1    
    67   33  101 1    
    68   33  102 1    
    69   33  103 1    
    70   34   35 am   BACKBONE|DICT|INTERRES
    71   34  104 1    
    72   35   36 2    
    73   37   38 2    
    74   37   39 am   BACKBONE|DICT|INTERRES
    75   39   40 1    
    76   39  105 1    
    77   40   41 1    
    78   40   42 1    
    79   40  106 1    
    80   41  107 1    
    81   41  108 1    
    82   41  109 1    
    83   42   43 2    
    84   42   44 am   BACKBONE|DICT|INTERRES
    85   44   45 1    
    86   44  110 1    
    87   45   46 1    
    88   45   47 1    
    89   45  111 1    
    90   46  112 1    
    91   46  113 1    
    92   46  114 1    
    93   47   48 2    
    94   47   49 am   BACKBONE|DICT|INTERRES
    95   49   50 1    
    96   49  115 1    
    97   50   51 1    
    98   50   52 1    
    99   50  116 1    
   100   51  117 1    
   101   51  118 1    
   102   51  119 1    
   103   52   53 2    
   104   52   54 am   BACKBONE|DICT|INTERRES
   105   54   55 1    
   106   54  120 1    
   107   55   56 1    
   108   55   57 1    
   109   55  121 1    
   110   56  122 1    
   111   56  123 1    
   112   56  124 1    
   113   57   58 2    
   114   57   59 am   BACKBONE|DICT|INTERRES
   115   59   60 1    
   116   59  125 1    
   117   60   61 1    
   118   60   62 1    
   119   60  126 1    
   120   61  127 1    
   121   61  128 1    
   122   61  129 1    
   123   62   63 2    
   124   62   64 am   BACKBONE|DICT|INTERRES
   125   64   65 1    
   126   64  130 1    
   127   65   66 1    
   128   65   69 1    
   129   65  131 1    
   130   66   67 am   BACKBONE|DICT|INTERRES
   131   66   68 2    
   132   67  132 1    
   133   67  133 1    
   134   69   70 1    
   135   69  134 1    
   136   69  135 1    
   137   70   71 1    
   138   71  136 1    
   139   71  137 1    
@<TRIPOS>SUBSTRUCTURE
     1 UNK         1 GROUP             0       ****    0 ROOT    
