@<TRIPOS>MOLECULE
3R136
137   139    1
SMALL
USER_CHARGES


@<TRIPOS>ATOM
      1 CA         31.8034   27.8897   -0.1879 C.3       0 UNK        -0.1979 
      2 C          31.4198   26.4464   -0.4752 C.2       0 UNK         0.4864 
      3 O          32.0307   25.8104   -1.3342 O.2       0 UNK        -0.5359 
      4 N          30.4066   25.9332    0.2389 N.am      1 UNK        -0.4318 
      5 CA         29.8694   24.5679    0.1325 C.3       1 UNK         0.0824 
      6 C6         30.9099   23.4782    0.5319 C.3       12 UNK        -0.0944 
      7 S7         30.1982   22.2106    1.6348 S.3       12 UNK        -0.2672 
      8 C8         31.0176   22.5908    3.2172 C.3       12 UNK         0.0333 
      9 C9         30.4528   23.8439    3.8731 C.ar      12 UNK        -0.0807 
     10 C10        31.0416   25.0918    3.6442 C.ar      12 UNK        -0.0894 
     11 C11        30.5392   26.2406    4.2621 C.ar      12 UNK        -0.0804 
     12 C12        29.4461   26.1291    5.1288 C.ar      12 UNK        -0.0824 
     13 C13        28.8548   24.8865    5.3753 C.ar      12 UNK        -0.0762 
     14 C14        29.3573   23.7488    4.7370 C.ar      12 UNK        -0.0782 
     15 C15        27.6947   24.7655    6.3543 C.3       12 UNK         0.0230 
     16 S16        26.0785   24.8170    5.5174 S.3       12 UNK        -0.2608 
     17 C17        25.9581   26.5756    5.0447 C.3       12 UNK        -0.0989 
     18 CA         26.3084   26.7944    3.5523 C.3       5 UNK         0.0716 
     19 N          25.3661   26.1150    2.6640 N.am      5 UNK        -0.4135 
     20 C          25.6252   25.7578    1.4025 C.2       4 UNK         0.5031 
     21 O          26.7169   25.9245    0.8451 O.2       4 UNK        -0.5229 
     22 CA         24.4570   25.1385    0.6285 C.3       4 UNK         0.0329 
     23 CB         23.4962   26.2352    0.1290 C.3       4 UNK        -0.2001 
     24 N          25.0090   24.3996   -0.4980 N.am      4 UNK        -0.4303 
     25 C          24.3809   23.5007   -1.2634 C.2       3 UNK         0.5044 
     26 O          23.2127   23.1529   -1.0824 O.2       3 UNK        -0.5152 
     27 CA         25.1966   22.8619   -2.4096 C.3       3 UNK         0.0319 
     28 CB         24.3561   22.6643   -3.6891 C.3       3 UNK        -0.2001 
     29 N          26.4587   23.5575   -2.7053 N.am      3 UNK        -0.4354 
     30 C          26.6269   24.8033   -3.1733 C.2       2 UNK         0.4964 
     31 O          25.7016   25.5507   -3.4940 O.2       2 UNK        -0.5047 
     32 CA         28.0818   25.3067   -3.2318 C.3       2 UNK         0.0288 
     33 CB         28.2022   26.7058   -3.8658 C.3       2 UNK        -0.2113 
     34 N          28.6986   25.3429   -1.9019 N.am      2 UNK        -0.4145 
     35 C          29.1843   24.2877   -1.2297 C.2       1 UNK         0.5006 
     36 O          29.0957   23.1326   -1.6538 O.2       1 UNK        -0.5103 
     37 C          26.3698   28.2882    3.1807 C.2       5 UNK         0.5055 
     38 O          25.6488   29.1005    3.7619 O.2       5 UNK        -0.5220 
     39 N          27.2059   28.6062    2.1843 N.am      6 UNK        -0.4450 
     40 CA         27.3600   29.9346    1.5814 C.3       6 UNK         0.0367 
     41 CB         28.2126   29.7968    0.3079 C.3       6 UNK        -0.1929 
     42 C          27.9555   31.0169    2.5047 C.2       6 UNK         0.5070 
     43 O          27.8443   32.1973    2.1735 O.2       6 UNK        -0.5237 
     44 N          28.5925   30.6080    3.6146 N.am      7 UNK        -0.4739 
     45 CA         29.2790   31.4542    4.6065 C.3       7 UNK         0.0276 
     46 CB         28.2764   32.3681    5.3437 C.3       7 UNK        -0.1927 
     47 C          30.4828   32.2272    4.0240 C.2       7 UNK         0.5013 
     48 O          30.7848   33.3357    4.4712 O.2       7 UNK        -0.5193 
     49 N          31.1401   31.6236    3.0259 N.am      8 UNK        -0.4253 
     50 CA         32.3305   32.1409    2.3527 C.3       8 UNK         0.0242 
     51 CB         32.4195   31.4821    0.9640 C.3       8 UNK        -0.2000 
     52 C          33.6057   31.8643    3.1669 C.2       8 UNK         0.4948 
     53 O          33.5685   31.1293    4.1567 O.2       8 UNK        -0.5275 
     54 N          34.7405   32.3943    2.6881 N.am      9 UNK        -0.4246 
     55 CA         36.0842   32.2225    3.2646 C.3       9 UNK         0.0261 
     56 CB         37.0901   33.0436    2.4407 C.3       9 UNK        -0.1959 
     57 C          36.5657   30.7610    3.3996 C.2       9 UNK         0.5033 
     58 O          37.5054   30.5061    4.1538 O.2       9 UNK        -0.5390 
     59 N          35.9038   29.8298    2.6980 N.am      10 UNK        -0.4215 
     60 CA         36.0557   28.3806    2.8422 C.3       10 UNK         0.0240 
     61 CB         35.2489   27.6825    1.7347 C.3       10 UNK        -0.1982 
     62 C          35.6295   27.8422    4.2234 C.2       10 UNK         0.4970 
     63 O          36.1167   26.7802    4.6135 O.2       10 UNK        -0.4916 
     64 N          34.7438   28.5599    4.9280 N.am      11 UNK        -0.4279 
     65 CA         34.2660   28.2167    6.2758 C.3       11 UNK         0.1003 
     66 C          34.2991   29.4055    7.2764 C.2       11 UNK         0.5709 
     67 N          34.2940   30.6568    6.8333 N.am      11 UNK        -0.7358 
     68 O          34.3587   29.1853    8.4841 O.2       11 UNK        -0.4999 
     69 C69        32.8861   27.5091    6.2418 C.3       12 UNK        -0.0954 
     70 S70        31.5580   28.5243    5.5030 S.3       12 UNK        -0.2268 
     71 C71        31.1792   27.5963    3.9838 C.3       12 UNK         0.0203 
     72 H72        32.8818   28.0179   -0.2761 H         1 UNK         0.0888 
     73 H73        31.3249   28.5558   -0.9054 H         1 UNK         0.0888 
     74 H74        31.5082   28.1909    0.8164 H         1 UNK         0.0888 
     75 H75        29.9492   26.5106    0.9285 H         1 UNK         0.3017 
     76 H76        29.0579   24.5464    0.8620 H         1 UNK         0.0873 
     77 H77        31.3399   22.9850   -0.3420 H         1 UNK         0.0745 
     78 H78        31.7669   23.9271    1.0332 H         1 UNK         0.0745 
     79 H79        30.8898   21.7390    3.8868 H         1 UNK         0.0705 
     80 H80        32.0933   22.6896    3.0633 H         1 UNK         0.0705 
     81 H81        31.8955   25.1686    2.9858 H         1 UNK         0.1334 
     82 H82        29.0629   27.0114    5.6221 H         1 UNK         0.1417 
     83 H83        28.9018   22.7853    4.9225 H         1 UNK         0.1562 
     84 H84        27.7448   25.5504    7.1107 H         1 UNK         0.0748 
     85 H85        27.7746   23.8227    6.8976 H         1 UNK         0.0748 
     86 H86        26.6095   27.1687    5.6890 H         1 UNK         0.0940 
     87 H87        24.9431   26.9176    5.2565 H         1 UNK         0.0940 
     88 H88        27.3005   26.3723    3.3808 H         1 UNK         0.0703 
     89 H89        24.4418   25.9577    3.0379 H         1 UNK         0.3081 
     90 H90        23.9266   24.4441    1.2834 H         1 UNK         0.0719 
     91 H91        23.9981   26.9282   -0.5479 H         1 UNK         0.0809 
     92 H92        22.6446   25.8100   -0.4020 H         1 UNK         0.0809 
     93 H93        23.0961   26.8197    0.9584 H         1 UNK         0.0809 
     94 H94        25.9786   24.6193   -0.6881 H         1 UNK         0.2990 
     95 H95        25.4828   21.8722   -2.0510 H         1 UNK         0.0690 
     96 H96        24.9437   22.2036   -4.4831 H         1 UNK         0.0788 
     97 H97        23.9620   23.6083   -4.0664 H         1 UNK         0.0788 
     98 H98        23.5030   22.0116   -3.5000 H         1 UNK         0.0788 
     99 H99        27.3046   23.0653   -2.4274 H         1 UNK         0.2993 
    100 H100       28.6404   24.6084   -3.8593 H         1 UNK         0.0949 
    101 H101       27.6755   27.4620   -3.2819 H         1 UNK         0.0767 
    102 H102       29.2448   27.0135   -3.9509 H         1 UNK         0.0767 
    103 H103       27.7801   26.7167   -4.8717 H         1 UNK         0.0767 
    104 H104       28.7662   26.2497   -1.4645 H         1 UNK         0.3013 
    105 H105       27.6625   27.8397    1.7084 H         1 UNK         0.3121 
    106 H106       26.3654   30.2792    1.2901 H         1 UNK         0.0774 
    107 H107       28.3080   30.7555   -0.2042 H         1 UNK         0.0815 
    108 H108       27.7629   29.0999   -0.3999 H         1 UNK         0.0815 
    109 H109       29.2206   29.4488    0.5327 H         1 UNK         0.0815 
    110 H110       28.6109   29.6157    3.7975 H         1 UNK         0.2987 
    111 H111       29.6967   30.7765    5.3513 H         1 UNK         0.0949 
    112 H112       27.4424   31.7956    5.7496 H         1 UNK         0.0806 
    113 H113       28.7552   32.8784    6.1803 H         1 UNK         0.0806 
    114 H114       27.8683   33.1368    4.6870 H         1 UNK         0.0806 
    115 H115       30.8351   30.7017    2.7584 H         1 UNK         0.3010 
    116 H116       32.2265   33.2212    2.2300 H         1 UNK         0.0829 
    117 H117       33.2198   31.9184    0.3652 H         1 UNK         0.0813 
    118 H118       32.6148   30.4124    1.0377 H         1 UNK         0.0813 
    119 H119       31.4951   31.6158    0.4011 H         1 UNK         0.0813 
    120 H120       34.6853   32.9750    1.8632 H         1 UNK         0.3038 
    121 H121       36.0539   32.6350    4.2752 H         1 UNK         0.0769 
    122 H122       37.1426   32.6981    1.4075 H         1 UNK         0.0811 
    123 H123       38.0945   32.9681    2.8604 H         1 UNK         0.0811 
    124 H124       36.8270   34.1015    2.4300 H         1 UNK         0.0811 
    125 H125       35.1613   30.1474    2.0941 H         1 UNK         0.3204 
    126 H126       37.1124   28.1407    2.7068 H         1 UNK         0.0748 
    127 H127       35.3778   26.6000    1.7810 H         1 UNK         0.0771 
    128 H128       34.1818   27.8861    1.8278 H         1 UNK         0.0771 
    129 H129       35.5703   28.0025    0.7433 H         1 UNK         0.0771 
    130 H130       34.3797   29.4276    4.5467 H         1 UNK         0.2980 
    131 H131       34.9664   27.4995    6.7077 H         1 UNK         0.0545 
    132 H132       34.1225   30.8610    5.8523 H         1 UNK         0.3459 
    133 H133       34.3297   31.4097    7.5008 H         1 UNK         0.3459 
    134 H134       32.5771   27.2264    7.2495 H         1 UNK         0.0616 
    135 H135       32.9756   26.5711    5.6923 H         1 UNK         0.0616 
    136 H136       30.4967   28.1870    3.3729 H         1 UNK         0.0634 
    137 H137       32.0984   27.4865    3.4060 H         1 UNK         0.0634 
@<TRIPOS>BOND
     1    1    2 1    
     2    1   72 1    
     3    1   73 1    
     4    1   74 1    
     5    2    3 2    
     6    2    4 am   BACKBONE|DICT|INTERRES
     7    4    5 1    
     8    4   75 1    
     9    5    6 1    
    10    5   35 1    
    11    5   76 1    
    12    6    7 1    
    13    6   77 1    
    14    6   78 1    
    15    7    8 1    
    16    8    9 1    
    17    8   79 1    
    18    8   80 1    
    19    9   10 ar   
    20    9   14 ar   
    21   10   11 ar   
    22   10   81 1    
    23   11   12 ar   
    24   11   71 1    
    25   12   13 ar   
    26   12   82 1    
    27   13   14 ar   
    28   13   15 1    
    29   14   83 1    
    30   15   16 1    
    31   15   84 1    
    32   15   85 1    
    33   16   17 1    
    34   17   18 1    
    35   17   86 1    
    36   17   87 1    
    37   18   19 1    
    38   18   37 1    
    39   18   88 1    
    40   19   20 am   BACKBONE|DICT|INTERRES
    41   19   89 1    
    42   20   21 2    
    43   20   22 1    
    44   22   23 1    
    45   22   24 1    
    46   22   90 1    
    47   23   91 1    
    48   23   92 1    
    49   23   93 1    
    50   24   25 am   BACKBONE|DICT|INTERRES
    51   24   94 1    
    52   25   26 2    
    53   25   27 1    
    54   27   28 1    
    55   27   29 1    
    56   27   95 1    
    57   28   96 1    
    58   28   97 1    
    59   28   98 1    
    60   29   30 am   BACKBONE|DICT|INTERRES
    61   29   99 1    
    62   30   31 2    
    63   30   32 1    
    64   32   33 1    
    65   32   34 1    
    66   32  100 1    
    67   33  101 1    
    68   33  102 1    
    69   33  103 1    
    70   34   35 am   BACKBONE|DICT|INTERRES
    71   34  104 1    
    72   35   36 2    
    73   37   38 2    
    74   37   39 am   BACKBONE|DICT|INTERRES
    75   39   40 1    
    76   39  105 1    
    77   40   41 1    
    78   40   42 1    
    79   40  106 1    
    80   41  107 1    
    81   41  108 1    
    82   41  109 1    
    83   42   43 2    
    84   42   44 am   BACKBONE|DICT|INTERRES
    85   44   45 1    
    86   44  110 1    
    87   45   46 1    
    88   45   47 1    
    89   45  111 1    
    90   46  112 1    
    91   46  113 1    
    92   46  114 1    
    93   47   48 2    
    94   47   49 am   BACKBONE|DICT|INTERRES
    95   49   50 1    
    96   49  115 1    
    97   50   51 1    
    98   50   52 1    
    99   50  116 1    
   100   51  117 1    
   101   51  118 1    
   102   51  119 1    
   103   52   53 2    
   104   52   54 am   BACKBONE|DICT|INTERRES
   105   54   55 1    
   106   54  120 1    
   107   55   56 1    
   108   55   57 1    
   109   55  121 1    
   110   56  122 1    
   111   56  123 1    
   112   56  124 1    
   113   57   58 2    
   114   57   59 am   BACKBONE|DICT|INTERRES
   115   59   60 1    
   116   59  125 1    
   117   60   61 1    
   118   60   62 1    
   119   60  126 1    
   120   61  127 1    
   121   61  128 1    
   122   61  129 1    
   123   62   63 2    
   124   62   64 am   BACKBONE|DICT|INTERRES
   125   64   65 1    
   126   64  130 1    
   127   65   66 1    
   128   65   69 1    
   129   65  131 1    
   130   66   67 am   BACKBONE|DICT|INTERRES
   131   66   68 2    
   132   67  132 1    
   133   67  133 1    
   134   69   70 1    
   135   69  134 1    
   136   69  135 1    
   137   70   71 1    
   138   71  136 1    
   139   71  137 1    
@<TRIPOS>SUBSTRUCTURE
     1 UNK         1 GROUP             0       ****    0 ROOT    
