@<TRIPOS>MOLECULE
3R136
137   139    1
SMALL
USER_CHARGES


@<TRIPOS>ATOM
      1 CA         27.2795   18.1987    0.4198 C.3       0 UNK        -0.1979 
      2 C          27.9994   19.3974   -0.1806 C.2       0 UNK         0.4864 
      3 O          28.6728   19.2575   -1.2029 O.2       0 UNK        -0.5359 
      4 N          27.8690   20.5726    0.4489 N.am      1 UNK        -0.4318 
      5 CA         28.4364   21.8383   -0.0200 C.3       1 UNK         0.0824 
      6 C6         28.4456   22.8949    1.1122 C.3       12 UNK        -0.0944 
      7 S7         29.4154   24.3892    0.6970 S.3       12 UNK        -0.2672 
      8 C8         30.8272   24.2645    1.8478 C.3       12 UNK         0.0333 
      9 C9         30.5757   24.9947    3.1633 C.ar      12 UNK        -0.0807 
     10 C10        31.4448   26.0074    3.5843 C.ar      12 UNK        -0.0894 
     11 C11        31.2260   26.6757    4.7935 C.ar      12 UNK        -0.0804 
     12 C12        30.1070   26.3534    5.5676 C.ar      12 UNK        -0.0824 
     13 C13        29.2288   25.3469    5.1575 C.ar      12 UNK        -0.0762 
     14 C14        29.4880   24.6528    3.9729 C.ar      12 UNK        -0.0782 
     15 C15        27.9919   25.0144    5.9826 C.3       12 UNK         0.0230 
     16 S16        26.4553   25.1350    5.0040 S.3       12 UNK        -0.2608 
     17 C17        26.4390   26.9029    4.5426 C.3       12 UNK        -0.0989 
     18 CA         27.0585   27.1832    3.1420 C.3       5 UNK         0.0716 
     19 N          26.5030   26.3774    2.0475 N.am      5 UNK        -0.4135 
     20 C          25.2228   26.2981    1.6602 C.2       4 UNK         0.5031 
     21 O          24.2999   26.9114    2.1989 O.2       4 UNK        -0.5229 
     22 CA         24.9522   25.4096    0.4254 C.3       4 UNK         0.0329 
     23 CB         23.5425   25.6207   -0.1655 C.3       4 UNK        -0.2001 
     24 N          25.9716   25.5511   -0.6270 N.am      4 UNK        -0.4303 
     25 C          26.3658   26.6970   -1.2093 C.2       3 UNK         0.5044 
     26 O          25.8995   27.7949   -0.9125 O.2       3 UNK        -0.5152 
     27 CA         27.4988   26.6451   -2.2511 C.3       3 UNK         0.0319 
     28 CB         28.7287   27.4161   -1.7399 C.3       3 UNK        -0.2001 
     29 N          27.9041   25.2825   -2.5966 N.am      3 UNK        -0.4354 
     30 C          27.2900   24.5078   -3.5021 C.2       2 UNK         0.4964 
     31 O          26.3503   24.8831   -4.2032 O.2       2 UNK        -0.5047 
     32 CA         27.7931   23.0575   -3.6262 C.3       2 UNK         0.0288 
     33 CB         28.8402   22.9441   -4.7460 C.3       2 UNK        -0.2113 
     34 N          28.3557   22.5251   -2.3792 N.am      2 UNK        -0.4145 
     35 C          27.6561   22.3346   -1.2515 C.2       1 UNK         0.5006 
     36 O          26.4517   22.5775   -1.1427 O.2       1 UNK        -0.5103 
     37 C          27.1452   28.6966    2.8412 C.2       5 UNK         0.5055 
     38 O          27.6354   29.4350    3.6978 O.2       5 UNK        -0.5220 
     39 N          26.7672   29.1510    1.6326 N.am      6 UNK        -0.4450 
     40 CA         26.9119   30.5511    1.2018 C.3       6 UNK         0.0367 
     41 CB         26.0762   30.8055   -0.0627 C.3       6 UNK        -0.1929 
     42 C          28.3753   30.9801    0.9760 C.2       6 UNK         0.5070 
     43 O          28.6372   32.1758    0.8454 O.2       6 UNK        -0.5237 
     44 N          29.3026   30.0097    0.9587 N.am      7 UNK        -0.4739 
     45 CA         30.7528   30.2163    0.9523 C.3       7 UNK         0.0276 
     46 CB         31.4519   28.8589    0.7773 C.3       7 UNK        -0.1927 
     47 C          31.2674   30.9400    2.2124 C.2       7 UNK         0.5013 
     48 O          32.2673   31.6514    2.1123 O.2       7 UNK        -0.5193 
     49 N          30.5565   30.7660    3.3423 N.am      8 UNK        -0.4253 
     50 CA         30.6407   31.4949    4.6156 C.3       8 UNK         0.0242 
     51 CB         29.7305   32.7392    4.5445 C.3       8 UNK        -0.2000 
     52 C          32.0717   31.8231    5.0809 C.2       8 UNK         0.4948 
     53 O          32.7116   30.9821    5.7126 O.2       8 UNK        -0.5275 
     54 N          32.5558   33.0240    4.7287 N.am      9 UNK        -0.4246 
     55 CA         33.8958   33.5477    5.0133 C.3       9 UNK         0.0261 
     56 CB         34.0160   34.9638    4.4277 C.3       9 UNK        -0.1959 
     57 C          35.0597   32.6648    4.5240 C.2       9 UNK         0.5033 
     58 O          36.1538   32.7709    5.0799 O.2       9 UNK        -0.5390 
     59 N          34.8115   31.7781    3.5471 N.am      10 UNK        -0.4215 
     60 CA         35.7405   30.7316    3.1039 C.3       10 UNK         0.0240 
     61 CB         35.1051   29.9452    1.9476 C.3       10 UNK        -0.1982 
     62 C          36.1697   29.7611    4.2232 C.2       10 UNK         0.4970 
     63 O          37.2724   29.2177    4.1485 O.2       10 UNK        -0.4916 
     64 N          35.3145   29.5780    5.2389 N.am      11 UNK        -0.4279 
     65 CA         35.6255   28.8344    6.4677 C.3       11 UNK         0.1003 
     66 C          36.4541   29.6468    7.5085 C.2       11 UNK         0.5709 
     67 N          36.7669   30.9195    7.2904 N.am      11 UNK        -0.7358 
     68 O          36.8416   29.1013    8.5394 O.2       11 UNK        -0.4999 
     69 C69        34.3429   28.2363    7.1022 C.3       12 UNK        -0.0954 
     70 S70        33.6262   26.8990    6.0924 S.3       12 UNK        -0.2268 
     71 C71        32.2162   27.7186    5.2868 C.3       12 UNK         0.0203 
     72 H72        26.7330   18.4624    1.3252 H         1 UNK         0.0888 
     73 H73        26.5690   17.7900   -0.2981 H         1 UNK         0.0888 
     74 H74        27.9967   17.4181    0.6723 H         1 UNK         0.0888 
     75 H75        27.2776   20.6320    1.2655 H         1 UNK         0.3017 
     76 H76        29.4726   21.6472   -0.3090 H         1 UNK         0.0873 
     77 H77        28.8644   22.4366    2.0081 H         1 UNK         0.0745 
     78 H78        27.4311   23.1969    1.3804 H         1 UNK         0.0745 
     79 H79        31.0684   23.2193    2.0454 H         1 UNK         0.0705 
     80 H80        31.7008   24.6844    1.3469 H         1 UNK         0.0705 
     81 H81        32.3085   26.2625    2.9853 H         1 UNK         0.1334 
     82 H82        29.9283   26.8788    6.4960 H         1 UNK         0.1417 
     83 H83        28.8081   23.8714    3.6711 H         1 UNK         0.1562 
     84 H84        27.9121   25.6683    6.8525 H         1 UNK         0.0748 
     85 H85        28.0866   23.9984    6.3679 H         1 UNK         0.0748 
     86 H86        26.9672   27.4641    5.3159 H         1 UNK         0.0940 
     87 H87        25.4065   27.2536    4.5798 H         1 UNK         0.0940 
     88 H88        28.1033   26.8812    3.1884 H         1 UNK         0.0703 
     89 H89        27.1812   25.8369    1.5293 H         1 UNK         0.3081 
     90 H90        25.0127   24.3776    0.7745 H         1 UNK         0.0719 
     91 H91        23.3662   24.9594   -1.0138 H         1 UNK         0.0809 
     92 H92        23.3962   26.6472   -0.5040 H         1 UNK         0.0809 
     93 H93        22.7707   25.4086    0.5754 H         1 UNK         0.0809 
     94 H94        26.3849   24.6819   -0.9445 H         1 UNK         0.2990 
     95 H95        27.1349   27.1477   -3.1498 H         1 UNK         0.0690 
     96 H96        29.5332   27.4133   -2.4756 H         1 UNK         0.0788 
     97 H97        29.1183   26.9907   -0.8151 H         1 UNK         0.0788 
     98 H98        28.4821   28.4599   -1.5405 H         1 UNK         0.0788 
     99 H99        28.6722   24.8914   -2.0695 H         1 UNK         0.2993 
    100 H100       26.9340   22.4385   -3.8944 H         1 UNK         0.0949 
    101 H101       28.4400   23.3098   -5.6928 H         1 UNK         0.0767 
    102 H102       29.7354   23.5266   -4.5238 H         1 UNK         0.0767 
    103 H103       29.1426   21.9084   -4.9033 H         1 UNK         0.0767 
    104 H104       29.3382   22.2902   -2.3897 H         1 UNK         0.3013 
    105 H105       26.3748   28.5104    0.9491 H         1 UNK         0.3121 
    106 H106       26.5123   31.1836    1.9975 H         1 UNK         0.0774 
    107 H107       26.0349   31.8713   -0.2909 H         1 UNK         0.0815 
    108 H108       26.5015   30.3086   -0.9349 H         1 UNK         0.0815 
    109 H109       25.0495   30.4595    0.0575 H         1 UNK         0.0815 
    110 H110       28.9813   29.0580    1.0472 H         1 UNK         0.2987 
    111 H111       30.9953   30.8449    0.0927 H         1 UNK         0.0949 
    112 H112       31.2539   28.1899    1.6150 H         1 UNK         0.0806 
    113 H113       31.1294   28.3597   -0.1361 H         1 UNK         0.0806 
    114 H114       32.5319   28.9839    0.7026 H         1 UNK         0.0806 
    115 H115       29.7643   30.1380    3.2827 H         1 UNK         0.3010 
    116 H116       30.2242   30.8302    5.3743 H         1 UNK         0.0829 
    117 H117       28.6874   32.4471    4.4189 H         1 UNK         0.0813 
    118 H118       29.7886   33.3289    5.4606 H         1 UNK         0.0813 
    119 H119       29.9862   33.3906    3.7079 H         1 UNK         0.0813 
    120 H120       31.9589   33.6152    4.1689 H         1 UNK         0.3038 
    121 H121       33.9866   33.6169    6.0992 H         1 UNK         0.0769 
    122 H122       34.9935   35.3961    4.6470 H         1 UNK         0.0811 
    123 H123       33.2669   35.6344    4.8491 H         1 UNK         0.0811 
    124 H124       33.8963   34.9623    3.3434 H         1 UNK         0.0811 
    125 H125       33.8854   31.7750    3.1228 H         1 UNK         0.3204 
    126 H126       36.6399   31.2278    2.7338 H         1 UNK         0.0748 
    127 H127       35.8019   29.2086    1.5451 H         1 UNK         0.0771 
    128 H128       34.2167   29.4069    2.2791 H         1 UNK         0.0771 
    129 H129       34.8164   30.6024    1.1269 H         1 UNK         0.0771 
    130 H130       34.4320   30.0801    5.2455 H         1 UNK         0.2980 
    131 H131       36.2689   27.9954    6.1959 H         1 UNK         0.0545 
    132 H132       36.4867   31.4017    6.4429 H         1 UNK         0.3459 
    133 H133       37.3104   31.4103    7.9820 H         1 UNK         0.3459 
    134 H134       33.6007   29.0129    7.2909 H         1 UNK         0.0616 
    135 H135       34.5642   27.7945    8.0755 H         1 UNK         0.0616 
    136 H136       31.7277   28.3951    5.9896 H         1 UNK         0.0634 
    137 H137       32.5719   28.3320    4.4573 H         1 UNK         0.0634 
@<TRIPOS>BOND
     1    1    2 1    
     2    1   72 1    
     3    1   73 1    
     4    1   74 1    
     5    2    3 2    
     6    2    4 am   BACKBONE|DICT|INTERRES
     7    4    5 1    
     8    4   75 1    
     9    5    6 1    
    10    5   35 1    
    11    5   76 1    
    12    6    7 1    
    13    6   77 1    
    14    6   78 1    
    15    7    8 1    
    16    8    9 1    
    17    8   79 1    
    18    8   80 1    
    19    9   10 ar   
    20    9   14 ar   
    21   10   11 ar   
    22   10   81 1    
    23   11   12 ar   
    24   11   71 1    
    25   12   13 ar   
    26   12   82 1    
    27   13   14 ar   
    28   13   15 1    
    29   14   83 1    
    30   15   16 1    
    31   15   84 1    
    32   15   85 1    
    33   16   17 1    
    34   17   18 1    
    35   17   86 1    
    36   17   87 1    
    37   18   19 1    
    38   18   37 1    
    39   18   88 1    
    40   19   20 am   BACKBONE|DICT|INTERRES
    41   19   89 1    
    42   20   21 2    
    43   20   22 1    
    44   22   23 1    
    45   22   24 1    
    46   22   90 1    
    47   23   91 1    
    48   23   92 1    
    49   23   93 1    
    50   24   25 am   BACKBONE|DICT|INTERRES
    51   24   94 1    
    52   25   26 2    
    53   25   27 1    
    54   27   28 1    
    55   27   29 1    
    56   27   95 1    
    57   28   96 1    
    58   28   97 1    
    59   28   98 1    
    60   29   30 am   BACKBONE|DICT|INTERRES
    61   29   99 1    
    62   30   31 2    
    63   30   32 1    
    64   32   33 1    
    65   32   34 1    
    66   32  100 1    
    67   33  101 1    
    68   33  102 1    
    69   33  103 1    
    70   34   35 am   BACKBONE|DICT|INTERRES
    71   34  104 1    
    72   35   36 2    
    73   37   38 2    
    74   37   39 am   BACKBONE|DICT|INTERRES
    75   39   40 1    
    76   39  105 1    
    77   40   41 1    
    78   40   42 1    
    79   40  106 1    
    80   41  107 1    
    81   41  108 1    
    82   41  109 1    
    83   42   43 2    
    84   42   44 am   BACKBONE|DICT|INTERRES
    85   44   45 1    
    86   44  110 1    
    87   45   46 1    
    88   45   47 1    
    89   45  111 1    
    90   46  112 1    
    91   46  113 1    
    92   46  114 1    
    93   47   48 2    
    94   47   49 am   BACKBONE|DICT|INTERRES
    95   49   50 1    
    96   49  115 1    
    97   50   51 1    
    98   50   52 1    
    99   50  116 1    
   100   51  117 1    
   101   51  118 1    
   102   51  119 1    
   103   52   53 2    
   104   52   54 am   BACKBONE|DICT|INTERRES
   105   54   55 1    
   106   54  120 1    
   107   55   56 1    
   108   55   57 1    
   109   55  121 1    
   110   56  122 1    
   111   56  123 1    
   112   56  124 1    
   113   57   58 2    
   114   57   59 am   BACKBONE|DICT|INTERRES
   115   59   60 1    
   116   59  125 1    
   117   60   61 1    
   118   60   62 1    
   119   60  126 1    
   120   61  127 1    
   121   61  128 1    
   122   61  129 1    
   123   62   63 2    
   124   62   64 am   BACKBONE|DICT|INTERRES
   125   64   65 1    
   126   64  130 1    
   127   65   66 1    
   128   65   69 1    
   129   65  131 1    
   130   66   67 am   BACKBONE|DICT|INTERRES
   131   66   68 2    
   132   67  132 1    
   133   67  133 1    
   134   69   70 1    
   135   69  134 1    
   136   69  135 1    
   137   70   71 1    
   138   71  136 1    
   139   71  137 1    
@<TRIPOS>SUBSTRUCTURE
     1 UNK         1 GROUP             0       ****    0 ROOT    
