@<TRIPOS>MOLECULE
3R136
137   139    1
SMALL
USER_CHARGES


@<TRIPOS>ATOM
      1 CA         30.4759   18.9426   -2.6666 C.3       0 UNK        -0.1979 
      2 C          29.5775   19.7748   -1.7642 C.2       0 UNK         0.4864 
      3 O          28.6334   20.4024   -2.2486 O.2       0 UNK        -0.5359 
      4 N          29.8549   19.7826   -0.4536 N.am      1 UNK        -0.4318 
      5 CA         29.1126   20.5257    0.5710 C.3       1 UNK         0.0824 
      6 C6         29.9787   20.7877    1.8323 C.3       12 UNK        -0.0944 
      7 S7         31.2042   22.0994    1.5220 S.3       12 UNK        -0.2672 
      8 C8         30.2379   23.5344    2.0883 C.3       12 UNK         0.0333 
      9 C9         30.7398   24.8335    1.4809 C.ar      12 UNK        -0.0807 
     10 C10        31.4290   25.7645    2.2645 C.ar      12 UNK        -0.0894 
     11 C11        31.8583   26.9728    1.7084 C.ar      12 UNK        -0.0804 
     12 C12        31.6073   27.2402    0.3604 C.ar      12 UNK        -0.0824 
     13 C13        30.9113   26.3215   -0.4297 C.ar      12 UNK        -0.0762 
     14 C14        30.4772   25.1199    0.1370 C.ar      12 UNK        -0.0782 
     15 C15        30.6426   26.6221   -1.8977 C.3       12 UNK         0.0230 
     16 S16        28.9309   27.1717   -2.1936 S.3       12 UNK        -0.2608 
     17 C17        28.8665   28.7572   -1.2875 C.3       12 UNK        -0.0989 
     18 CA         27.7735   28.7712   -0.1898 C.3       5 UNK         0.0716 
     19 N          27.8894   27.6431    0.7441 N.am      5 UNK        -0.4135 
     20 C          26.8704   27.1712    1.4729 C.2       4 UNK         0.5031 
     21 O          25.7283   27.6360    1.4465 O.2       4 UNK        -0.5229 
     22 CA         27.1812   26.0035    2.4191 C.3       4 UNK         0.0329 
     23 CB         27.3024   26.5000    3.8678 C.3       4 UNK        -0.2001 
     24 N          26.1345   24.9841    2.3418 N.am      4 UNK        -0.4303 
     25 C          26.0559   24.0677    1.3710 C.2       3 UNK         0.5044 
     26 O          26.9006   23.9333    0.4800 O.2       3 UNK        -0.5152 
     27 CA         24.8331   23.1412    1.3960 C.3       3 UNK         0.0319 
     28 CB         23.6144   23.8031    0.7293 C.3       3 UNK        -0.2001 
     29 N          25.1987   21.9281    0.6775 N.am      3 UNK        -0.4354 
     30 C          24.7036   20.6985    0.8595 C.2       2 UNK         0.4964 
     31 O          23.7501   20.4406    1.5945 O.2       2 UNK        -0.5047 
     32 CA         25.4239   19.5577    0.1135 C.3       2 UNK         0.0288 
     33 CB         24.7676   19.3009   -1.2525 C.3       2 UNK        -0.2113 
     34 N          26.8485   19.8499   -0.0781 N.am      2 UNK        -0.4145 
     35 C          27.7611   19.8566    0.9030 C.2       1 UNK         0.5006 
     36 O          27.5520   19.3946    2.0268 O.2       1 UNK        -0.5103 
     37 C          27.7558   30.1340    0.5361 C.2       5 UNK         0.5055 
     38 O          27.2267   31.0974   -0.0215 O.2       5 UNK        -0.5220 
     39 N          28.3282   30.1856    1.7505 N.am      6 UNK        -0.4450 
     40 CA         28.5282   31.3676    2.5983 C.3       6 UNK         0.0367 
     41 CB         27.1758   31.9963    3.0043 C.3       6 UNK        -0.1929 
     42 C          29.5155   32.3765    1.9736 C.2       6 UNK         0.5070 
     43 O          30.2842   32.0149    1.0790 O.2       6 UNK        -0.5237 
     44 N          29.5118   33.6136    2.4908 N.am      7 UNK        -0.4739 
     45 CA         30.3329   34.7789    2.1193 C.3       7 UNK         0.0276 
     46 CB         30.1110   35.1831    0.6483 C.3       7 UNK        -0.1927 
     47 C          31.8351   34.6511    2.4391 C.2       7 UNK         0.5013 
     48 O          32.4208   35.6112    2.9424 O.2       7 UNK        -0.5193 
     49 N          32.4329   33.4887    2.1552 N.am      8 UNK        -0.4253 
     50 CA         33.8115   33.1426    2.5004 C.3       8 UNK         0.0242 
     51 CB         34.2150   31.8744    1.7317 C.3       8 UNK        -0.2000 
     52 C          33.9579   32.9169    4.0124 C.2       8 UNK         0.4948 
     53 O          33.0437   32.3773    4.6383 O.2       8 UNK        -0.5275 
     54 N          35.1235   33.2727    4.5694 N.am      9 UNK        -0.4246 
     55 CA         35.4370   33.1843    6.0046 C.3       9 UNK         0.0261 
     56 CB         36.8338   33.7778    6.2516 C.3       9 UNK        -0.1959 
     57 C          35.3407   31.7695    6.6117 C.2       9 UNK         0.5033 
     58 O          35.1742   31.6437    7.8255 O.2       9 UNK        -0.5390 
     59 N          35.4323   30.7380    5.7631 N.am      10 UNK        -0.4215 
     60 CA         35.2655   29.3303    6.1205 C.3       10 UNK         0.0240 
     61 CB         35.8643   28.4662    4.9971 C.3       10 UNK        -0.1982 
     62 C          33.8062   28.9130    6.3938 C.2       10 UNK         0.4970 
     63 O          33.6095   27.8344    6.9560 O.2       10 UNK        -0.4916 
     64 N          32.8183   29.7211    5.9829 N.am      11 UNK        -0.4279 
     65 CA         31.3906   29.3609    6.0366 C.3       11 UNK         0.1003 
     66 C          30.4135   30.5434    6.2853 C.2       11 UNK         0.5709 
     67 N          30.8013   31.7977    6.1032 N.am      11 UNK        -0.7358 
     68 O          29.2729   30.3152    6.6809 O.2       11 UNK        -0.4999 
     69 C69        30.9615   28.4862    4.8260 C.3       12 UNK        -0.0954 
     70 S70        31.4118   29.2253    3.2167 S.3       12 UNK        -0.2268 
     71 C71        32.5843   28.0047    2.5546 C.3       12 UNK         0.0203 
     72 H72        30.9370   19.5766   -3.4233 H         1 UNK         0.0888 
     73 H73        31.2707   18.4491   -2.1077 H         1 UNK         0.0888 
     74 H74        29.8910   18.1759   -3.1740 H         1 UNK         0.0888 
     75 H75        30.6337   19.2371   -0.1127 H         1 UNK         0.3017 
     76 H76        28.8504   21.5004    0.1515 H         1 UNK         0.0873 
     77 H77        30.4946   19.8791    2.1474 H         1 UNK         0.0745 
     78 H78        29.3694   21.0943    2.6853 H         1 UNK         0.0745 
     79 H79        29.1919   23.4011    1.8115 H         1 UNK         0.0705 
     80 H80        30.2628   23.5766    3.1783 H         1 UNK         0.0705 
     81 H81        31.6228   25.5545    3.3075 H         1 UNK         0.1334 
     82 H82        31.9483   28.1727   -0.0690 H         1 UNK         0.1417 
     83 H83        29.9325   24.4058   -0.4672 H         1 UNK         0.1562 
     84 H84        30.8302   25.7253   -2.4900 H         1 UNK         0.0748 
     85 H85        31.3337   27.3799   -2.2706 H         1 UNK         0.0748 
     86 H86        28.6688   29.5434   -2.0191 H         1 UNK         0.0940 
     87 H87        29.8435   28.9931   -0.8650 H         1 UNK         0.0940 
     88 H88        26.8106   28.6789   -0.6980 H         1 UNK         0.0703 
     89 H89        28.7895   27.1849    0.7840 H         1 UNK         0.3081 
     90 H90        28.1338   25.5594    2.1316 H         1 UNK         0.0719 
     91 H91        26.3658   26.9256    4.2305 H         1 UNK         0.0809 
     92 H92        27.5902   25.6930    4.5418 H         1 UNK         0.0809 
     93 H93        28.0622   27.2762    3.9477 H         1 UNK         0.0809 
     94 H94        25.3785   25.0614    3.0069 H         1 UNK         0.2990 
     95 H95        24.6012   22.8920    2.4337 H         1 UNK         0.0690 
     96 H96        22.7465   23.1435    0.7450 H         1 UNK         0.0788 
     97 H97        23.8179   24.0638   -0.3102 H         1 UNK         0.0788 
     98 H98        23.3335   24.7208    1.2476 H         1 UNK         0.0788 
     99 H99        26.0010   22.0535    0.0722 H         1 UNK         0.2993 
    100 H100       25.3319   18.6529    0.7185 H         1 UNK         0.0949 
    101 H101       25.2356   18.4598   -1.7645 H         1 UNK         0.0767 
    102 H102       23.7093   19.0622   -1.1375 H         1 UNK         0.0767 
    103 H103       24.8374   20.1721   -1.9053 H         1 UNK         0.0767 
    104 H104       27.1454   20.1767   -0.9943 H         1 UNK         0.3013 
    105 H105       28.7816   29.3465    2.0809 H         1 UNK         0.3121 
    106 H106       29.0040   31.0035    3.5094 H         1 UNK         0.0774 
    107 H107       27.2943   32.7010    3.8276 H         1 UNK         0.0815 
    108 H108       26.7111   32.5328    2.1764 H         1 UNK         0.0815 
    109 H109       26.4733   31.2343    3.3423 H         1 UNK         0.0815 
    110 H110       28.8688   33.7847    3.2515 H         1 UNK         0.2987 
    111 H111       29.9621   35.5998    2.7357 H         1 UNK         0.0949 
    112 H112       30.4722   34.4229   -0.0449 H         1 UNK         0.0806 
    113 H113       29.0549   35.3528    0.4388 H         1 UNK         0.0806 
    114 H114       30.6402   36.1082    0.4161 H         1 UNK         0.0806 
    115 H115       31.8506   32.7566    1.7552 H         1 UNK         0.3010 
    116 H116       34.4613   33.9658    2.1959 H         1 UNK         0.0829 
    117 H117       34.1351   32.0219    0.6545 H         1 UNK         0.0813 
    118 H118       35.2476   31.5947    1.9443 H         1 UNK         0.0813 
    119 H119       33.5837   31.0265    1.9991 H         1 UNK         0.0813 
    120 H120       35.8328   33.6882    3.9818 H         1 UNK         0.3038 
    121 H121       34.7066   33.8022    6.5312 H         1 UNK         0.0769 
    122 H122       37.6082   33.2220    5.7214 H         1 UNK         0.0811 
    123 H123       37.0864   33.7555    7.3129 H         1 UNK         0.0811 
    124 H124       36.8866   34.8188    5.9320 H         1 UNK         0.0811 
    125 H125       35.5723   30.9455    4.7856 H         1 UNK         0.3204 
    126 H126       35.8313   29.1408    7.0353 H         1 UNK         0.0748 
    127 H127       36.9239   28.6795    4.8545 H         1 UNK         0.0771 
    128 H128       35.7797   27.4039    5.2308 H         1 UNK         0.0771 
    129 H129       35.3569   28.6319    4.0460 H         1 UNK         0.0771 
    130 H130       33.0351   30.6022    5.5294 H         1 UNK         0.2980 
    131 H131       31.2521   28.7448    6.9272 H         1 UNK         0.0545 
    132 H132       31.6941   32.0198    5.6656 H         1 UNK         0.3459 
    133 H133       30.1512   32.5390    6.3042 H         1 UNK         0.3459 
    134 H134       29.8866   28.3082    4.8389 H         1 UNK         0.0616 
    135 H135       31.4170   27.4996    4.9141 H         1 UNK         0.0616 
    136 H136       33.3238   28.5251    1.9446 H         1 UNK         0.0634 
    137 H137       33.1414   27.5285    3.3626 H         1 UNK         0.0634 
@<TRIPOS>BOND
     1    1    2 1    
     2    1   72 1    
     3    1   73 1    
     4    1   74 1    
     5    2    3 2    
     6    2    4 am   BACKBONE|DICT|INTERRES
     7    4    5 1    
     8    4   75 1    
     9    5    6 1    
    10    5   35 1    
    11    5   76 1    
    12    6    7 1    
    13    6   77 1    
    14    6   78 1    
    15    7    8 1    
    16    8    9 1    
    17    8   79 1    
    18    8   80 1    
    19    9   10 ar   
    20    9   14 ar   
    21   10   11 ar   
    22   10   81 1    
    23   11   12 ar   
    24   11   71 1    
    25   12   13 ar   
    26   12   82 1    
    27   13   14 ar   
    28   13   15 1    
    29   14   83 1    
    30   15   16 1    
    31   15   84 1    
    32   15   85 1    
    33   16   17 1    
    34   17   18 1    
    35   17   86 1    
    36   17   87 1    
    37   18   19 1    
    38   18   37 1    
    39   18   88 1    
    40   19   20 am   BACKBONE|DICT|INTERRES
    41   19   89 1    
    42   20   21 2    
    43   20   22 1    
    44   22   23 1    
    45   22   24 1    
    46   22   90 1    
    47   23   91 1    
    48   23   92 1    
    49   23   93 1    
    50   24   25 am   BACKBONE|DICT|INTERRES
    51   24   94 1    
    52   25   26 2    
    53   25   27 1    
    54   27   28 1    
    55   27   29 1    
    56   27   95 1    
    57   28   96 1    
    58   28   97 1    
    59   28   98 1    
    60   29   30 am   BACKBONE|DICT|INTERRES
    61   29   99 1    
    62   30   31 2    
    63   30   32 1    
    64   32   33 1    
    65   32   34 1    
    66   32  100 1    
    67   33  101 1    
    68   33  102 1    
    69   33  103 1    
    70   34   35 am   BACKBONE|DICT|INTERRES
    71   34  104 1    
    72   35   36 2    
    73   37   38 2    
    74   37   39 am   BACKBONE|DICT|INTERRES
    75   39   40 1    
    76   39  105 1    
    77   40   41 1    
    78   40   42 1    
    79   40  106 1    
    80   41  107 1    
    81   41  108 1    
    82   41  109 1    
    83   42   43 2    
    84   42   44 am   BACKBONE|DICT|INTERRES
    85   44   45 1    
    86   44  110 1    
    87   45   46 1    
    88   45   47 1    
    89   45  111 1    
    90   46  112 1    
    91   46  113 1    
    92   46  114 1    
    93   47   48 2    
    94   47   49 am   BACKBONE|DICT|INTERRES
    95   49   50 1    
    96   49  115 1    
    97   50   51 1    
    98   50   52 1    
    99   50  116 1    
   100   51  117 1    
   101   51  118 1    
   102   51  119 1    
   103   52   53 2    
   104   52   54 am   BACKBONE|DICT|INTERRES
   105   54   55 1    
   106   54  120 1    
   107   55   56 1    
   108   55   57 1    
   109   55  121 1    
   110   56  122 1    
   111   56  123 1    
   112   56  124 1    
   113   57   58 2    
   114   57   59 am   BACKBONE|DICT|INTERRES
   115   59   60 1    
   116   59  125 1    
   117   60   61 1    
   118   60   62 1    
   119   60  126 1    
   120   61  127 1    
   121   61  128 1    
   122   61  129 1    
   123   62   63 2    
   124   62   64 am   BACKBONE|DICT|INTERRES
   125   64   65 1    
   126   64  130 1    
   127   65   66 1    
   128   65   69 1    
   129   65  131 1    
   130   66   67 am   BACKBONE|DICT|INTERRES
   131   66   68 2    
   132   67  132 1    
   133   67  133 1    
   134   69   70 1    
   135   69  134 1    
   136   69  135 1    
   137   70   71 1    
   138   71  136 1    
   139   71  137 1    
@<TRIPOS>SUBSTRUCTURE
     1 UNK         1 GROUP             0       ****    0 ROOT    
