@<TRIPOS>MOLECULE
3R136
137   139    1
SMALL
USER_CHARGES


@<TRIPOS>ATOM
      1 CA         28.8103   28.8788   -1.4810 C.3       0 UNK        -0.1979 
      2 C          28.8759   27.5421   -0.7593 C.2       0 UNK         0.4864 
      3 O          28.2893   27.3968    0.3120 O.2       0 UNK        -0.5359 
      4 N          29.5923   26.5653   -1.3297 N.am      1 UNK        -0.4318 
      5 CA         29.6897   25.1935   -0.8197 C.3       1 UNK         0.0824 
      6 C6         30.8340   24.4236   -1.5364 C.3       12 UNK        -0.0944 
      7 S7         30.9022   22.6232   -1.2315 S.3       12 UNK        -0.2672 
      8 C8         32.1930   22.5020    0.0442 C.3       12 UNK         0.0333 
      9 C9         31.7338   22.9823    1.4164 C.ar      12 UNK        -0.0807 
     10 C10        32.4957   23.9235    2.1155 C.ar      12 UNK        -0.0894 
     11 C11        32.1535   24.2868    3.4211 C.ar      12 UNK        -0.0804 
     12 C12        31.0259   23.7178    4.0204 C.ar      12 UNK        -0.0824 
     13 C13        30.2420   22.7892    3.3272 C.ar      12 UNK        -0.0762 
     14 C14        30.6021   22.4264    2.0253 C.ar      12 UNK        -0.0782 
     15 C15        29.0484   22.1269    4.0073 C.3       12 UNK         0.0230 
     16 S16        27.4606   22.9188    3.5889 S.3       12 UNK        -0.2608 
     17 C17        27.6495   24.5549    4.3709 C.3       12 UNK        -0.0989 
     18 CA         27.8982   25.6537    3.3038 C.3       5 UNK         0.0716 
     19 N          26.7048   25.9571    2.5000 N.am      5 UNK        -0.4135 
     20 C          25.6086   26.6106    2.9173 C.2       4 UNK         0.5031 
     21 O          25.4159   26.9733    4.0787 O.2       4 UNK        -0.5229 
     22 CA         24.5413   26.9364    1.8609 C.3       4 UNK         0.0329 
     23 CB         24.8926   28.2306    1.1087 C.3       4 UNK        -0.2001 
     24 N          24.3192   25.8573    0.8999 N.am      4 UNK        -0.4303 
     25 C          23.7061   24.7001    1.1728 C.2       3 UNK         0.5044 
     26 O          23.2923   24.3950    2.2919 O.2       3 UNK        -0.5152 
     27 CA         23.4814   23.7219    0.0036 C.3       3 UNK         0.0319 
     28 CB         22.2506   24.1325   -0.8287 C.3       3 UNK        -0.2001 
     29 N          24.6512   23.4854   -0.8548 N.am      3 UNK        -0.4354 
     30 C          25.3050   24.3415   -1.6525 C.2       2 UNK         0.4964 
     31 O          25.0191   25.5337   -1.7860 O.2       2 UNK        -0.5047 
     32 CA         26.4940   23.7608   -2.4333 C.3       2 UNK         0.0288 
     33 CB         26.2422   23.8338   -3.9486 C.3       2 UNK        -0.2113 
     34 N          27.7478   24.4452   -2.1175 N.am      2 UNK        -0.4145 
     35 C          28.3213   24.4829   -0.9050 C.2       1 UNK         0.5006 
     36 O          27.8205   23.9985    0.1107 O.2       1 UNK        -0.5103 
     37 C          28.5239   26.9428    3.8819 C.2       5 UNK         0.5055 
     38 O          28.7304   27.0572    5.0918 O.2       5 UNK        -0.5220 
     39 N          28.7854   27.9020    2.9885 N.am      6 UNK        -0.4450 
     40 CA         29.3696   29.2066    3.2749 C.3       6 UNK         0.0367 
     41 CB         28.2424   30.2427    3.4481 C.3       6 UNK        -0.1929 
     42 C          30.3443   29.5558    2.1431 C.2       6 UNK         0.5070 
     43 O          30.1947   30.5860    1.4844 O.2       6 UNK        -0.5237 
     44 N          31.3073   28.6572    1.9052 N.am      7 UNK        -0.4739 
     45 CA         32.2830   28.6928    0.8138 C.3       7 UNK         0.0276 
     46 CB         32.9041   27.2907    0.6752 C.3       7 UNK        -0.1927 
     47 C          33.3464   29.7939    0.9982 C.2       7 UNK         0.5013 
     48 O          34.5033   29.4826    1.2840 O.2       7 UNK        -0.5193 
     49 N          32.9087   31.0490    0.8221 N.am      8 UNK        -0.4253 
     50 CA         33.6235   32.3232    0.9675 C.3       8 UNK         0.0242 
     51 CB         34.9247   32.3674    0.1418 C.3       8 UNK        -0.2000 
     52 C          33.8765   32.6695    2.4424 C.2       8 UNK         0.4948 
     53 O          34.5011   31.8888    3.1611 O.2       8 UNK        -0.5275 
     54 N          33.3706   33.8356    2.8729 N.am      9 UNK        -0.4246 
     55 CA         33.4800   34.3958    4.2306 C.3       9 UNK         0.0261 
     56 CB         34.9274   34.8615    4.5003 C.3       9 UNK        -0.1959 
     57 C          32.9448   33.4566    5.3345 C.2       9 UNK         0.5033 
     58 O          33.5076   33.4160    6.4300 O.2       9 UNK        -0.5390 
     59 N          31.8767   32.7103    5.0088 N.am      10 UNK        -0.4215 
     60 CA         31.2619   31.6448    5.8107 C.3       10 UNK         0.0240 
     61 CB         30.5973   32.2177    7.0815 C.3       10 UNK        -0.1982 
     62 C          32.2392   30.4853    6.0998 C.2       10 UNK         0.4970 
     63 O          32.3531   30.0534    7.2481 O.2       10 UNK        -0.4916 
     64 N          32.9251   30.0178    5.0455 N.am      11 UNK        -0.4279 
     65 CA         33.9950   29.0054    5.0826 C.3       11 UNK         0.1003 
     66 C          35.2700   29.5362    5.8005 C.2       11 UNK         0.5709 
     67 N          35.7566   30.7102    5.4211 N.am      11 UNK        -0.7358 
     68 O          35.8261   28.8967    6.6913 O.2       11 UNK        -0.4999 
     69 C69        33.5276   27.6097    5.5918 C.3       12 UNK        -0.0954 
     70 S70        32.2688   26.8393    4.5196 S.3       12 UNK        -0.2268 
     71 C71        33.0482   25.2259    4.2164 C.3       12 UNK         0.0203 
     72 H72        29.1434   29.6799   -0.8228 H         1 UNK         0.0888 
     73 H73        29.4340   28.8925   -2.3745 H         1 UNK         0.0888 
     74 H74        27.7835   29.0897   -1.7784 H         1 UNK         0.0888 
     75 H75        30.0645   26.7476   -2.2037 H         1 UNK         0.3017 
     76 H76        29.9470   25.2502    0.2407 H         1 UNK         0.0873 
     77 H77        31.7960   24.8670   -1.2762 H         1 UNK         0.0745 
     78 H78        30.7416   24.5472   -2.6168 H         1 UNK         0.0745 
     79 H79        33.0786   23.0451   -0.2897 H         1 UNK         0.0705 
     80 H80        32.4938   21.4571    0.1306 H         1 UNK         0.0705 
     81 H81        33.3838   24.3399    1.6600 H         1 UNK         0.1334 
     82 H82        30.7762   23.9844    5.0382 H         1 UNK         0.1417 
     83 H83        30.0133   21.6916    1.4928 H         1 UNK         0.1562 
     84 H84        29.1776   22.1257    5.0909 H         1 UNK         0.0748 
     85 H85        29.0003   21.0776    3.7124 H         1 UNK         0.0748 
     86 H86        28.4660   24.5047    5.0918 H         1 UNK         0.0940 
     87 H87        26.7566   24.7753    4.9577 H         1 UNK         0.0940 
     88 H88        28.6428   25.2724    2.6025 H         1 UNK         0.0703 
     89 H89        26.7760   25.7122    1.5210 H         1 UNK         0.3081 
     90 H90        23.6021   27.1066    2.3920 H         1 UNK         0.0719 
     91 H91        25.7754   28.1084    0.4815 H         1 UNK         0.0809 
     92 H92        24.0710   28.5496    0.4673 H         1 UNK         0.0809 
     93 H93        25.0965   29.0460    1.8043 H         1 UNK         0.0809 
     94 H94        24.6231   26.0068   -0.0601 H         1 UNK         0.2990 
     95 H95        23.2562   22.7538    0.4543 H         1 UNK         0.0690 
     96 H96        22.0289   23.3940   -1.5991 H         1 UNK         0.0788 
     97 H97        22.3903   25.0965   -1.3190 H         1 UNK         0.0788 
     98 H98        21.3652   24.2171   -0.1971 H         1 UNK         0.0788 
     99 H99        25.0198   22.5459   -0.7959 H         1 UNK         0.2993 
    100 H100       26.6191   22.7103   -2.1613 H         1 UNK         0.0949 
    101 H101       27.0494   23.3621   -4.5095 H         1 UNK         0.0767 
    102 H102       25.3188   23.3177   -4.2156 H         1 UNK         0.0767 
    103 H103       26.1501   24.8648   -4.2936 H         1 UNK         0.0767 
    104 H104       28.2133   24.9071   -2.8840 H         1 UNK         0.3013 
    105 H105       28.5851   27.7164    2.0021 H         1 UNK         0.3121 
    106 H106       29.9525   29.1549    4.1962 H         1 UNK         0.0774 
    107 H107       28.6424   31.2405    3.6294 H         1 UNK         0.0815 
    108 H108       27.6146   30.3008    2.5579 H         1 UNK         0.0815 
    109 H109       27.6009   29.9897    4.2924 H         1 UNK         0.0815 
    110 H110       31.3749   27.8647    2.5311 H         1 UNK         0.2987 
    111 H111       31.7493   28.9090   -0.1141 H         1 UNK         0.0949 
    112 H112       33.5956   27.2505   -0.1673 H         1 UNK         0.0806 
    113 H113       33.4611   27.0062    1.5686 H         1 UNK         0.0806 
    114 H114       32.1394   26.5341    0.5047 H         1 UNK         0.0806 
    115 H115       31.9030   31.1392    0.7011 H         1 UNK         0.3010 
    116 H116       32.9535   33.0771    0.5509 H         1 UNK         0.0829 
    117 H117       34.7449   32.1018   -0.8999 H         1 UNK         0.0813 
    118 H118       35.3552   33.3694    0.1529 H         1 UNK         0.0813 
    119 H119       35.6831   31.6903    0.5361 H         1 UNK         0.0813 
    120 H120       32.8648   34.4085    2.2105 H         1 UNK         0.3038 
    121 H121       32.8405   35.2795    4.2528 H         1 UNK         0.0769 
    122 H122       34.9985   35.3945    5.4493 H         1 UNK         0.0811 
    123 H123       35.2778   35.5405    3.7231 H         1 UNK         0.0811 
    124 H124       35.6195   34.0199    4.5476 H         1 UNK         0.0811 
    125 H125       31.4892   32.8442    4.0852 H         1 UNK         0.3204 
    126 H126       30.4656   31.2244    5.1991 H         1 UNK         0.0748 
    127 H127       30.0385   31.4447    7.6107 H         1 UNK         0.0771 
    128 H128       31.3317   32.6210    7.7794 H         1 UNK         0.0771 
    129 H129       29.8944   33.0140    6.8370 H         1 UNK         0.0771 
    130 H130       32.8459   30.5074    4.1665 H         1 UNK         0.2980 
    131 H131       34.3046   28.8681    4.0458 H         1 UNK         0.0545 
    132 H132       36.5774   31.0802    5.8714 H         1 UNK         0.3459 
    133 H133       35.3197   31.2160    4.6522 H         1 UNK         0.3459 
    134 H134       34.3841   26.9364    5.6534 H         1 UNK         0.0616 
    135 H135       33.1304   27.6694    6.6053 H         1 UNK         0.0616 
    136 H136       33.9975   25.3828    3.7015 H         1 UNK         0.0634 
    137 H137       33.2886   24.7592    5.1729 H         1 UNK         0.0634 
@<TRIPOS>BOND
     1    1    2 1    
     2    1   72 1    
     3    1   73 1    
     4    1   74 1    
     5    2    3 2    
     6    2    4 am   BACKBONE|DICT|INTERRES
     7    4    5 1    
     8    4   75 1    
     9    5    6 1    
    10    5   35 1    
    11    5   76 1    
    12    6    7 1    
    13    6   77 1    
    14    6   78 1    
    15    7    8 1    
    16    8    9 1    
    17    8   79 1    
    18    8   80 1    
    19    9   10 ar   
    20    9   14 ar   
    21   10   11 ar   
    22   10   81 1    
    23   11   12 ar   
    24   11   71 1    
    25   12   13 ar   
    26   12   82 1    
    27   13   14 ar   
    28   13   15 1    
    29   14   83 1    
    30   15   16 1    
    31   15   84 1    
    32   15   85 1    
    33   16   17 1    
    34   17   18 1    
    35   17   86 1    
    36   17   87 1    
    37   18   19 1    
    38   18   37 1    
    39   18   88 1    
    40   19   20 am   BACKBONE|DICT|INTERRES
    41   19   89 1    
    42   20   21 2    
    43   20   22 1    
    44   22   23 1    
    45   22   24 1    
    46   22   90 1    
    47   23   91 1    
    48   23   92 1    
    49   23   93 1    
    50   24   25 am   BACKBONE|DICT|INTERRES
    51   24   94 1    
    52   25   26 2    
    53   25   27 1    
    54   27   28 1    
    55   27   29 1    
    56   27   95 1    
    57   28   96 1    
    58   28   97 1    
    59   28   98 1    
    60   29   30 am   BACKBONE|DICT|INTERRES
    61   29   99 1    
    62   30   31 2    
    63   30   32 1    
    64   32   33 1    
    65   32   34 1    
    66   32  100 1    
    67   33  101 1    
    68   33  102 1    
    69   33  103 1    
    70   34   35 am   BACKBONE|DICT|INTERRES
    71   34  104 1    
    72   35   36 2    
    73   37   38 2    
    74   37   39 am   BACKBONE|DICT|INTERRES
    75   39   40 1    
    76   39  105 1    
    77   40   41 1    
    78   40   42 1    
    79   40  106 1    
    80   41  107 1    
    81   41  108 1    
    82   41  109 1    
    83   42   43 2    
    84   42   44 am   BACKBONE|DICT|INTERRES
    85   44   45 1    
    86   44  110 1    
    87   45   46 1    
    88   45   47 1    
    89   45  111 1    
    90   46  112 1    
    91   46  113 1    
    92   46  114 1    
    93   47   48 2    
    94   47   49 am   BACKBONE|DICT|INTERRES
    95   49   50 1    
    96   49  115 1    
    97   50   51 1    
    98   50   52 1    
    99   50  116 1    
   100   51  117 1    
   101   51  118 1    
   102   51  119 1    
   103   52   53 2    
   104   52   54 am   BACKBONE|DICT|INTERRES
   105   54   55 1    
   106   54  120 1    
   107   55   56 1    
   108   55   57 1    
   109   55  121 1    
   110   56  122 1    
   111   56  123 1    
   112   56  124 1    
   113   57   58 2    
   114   57   59 am   BACKBONE|DICT|INTERRES
   115   59   60 1    
   116   59  125 1    
   117   60   61 1    
   118   60   62 1    
   119   60  126 1    
   120   61  127 1    
   121   61  128 1    
   122   61  129 1    
   123   62   63 2    
   124   62   64 am   BACKBONE|DICT|INTERRES
   125   64   65 1    
   126   64  130 1    
   127   65   66 1    
   128   65   69 1    
   129   65  131 1    
   130   66   67 am   BACKBONE|DICT|INTERRES
   131   66   68 2    
   132   67  132 1    
   133   67  133 1    
   134   69   70 1    
   135   69  134 1    
   136   69  135 1    
   137   70   71 1    
   138   71  136 1    
   139   71  137 1    
@<TRIPOS>SUBSTRUCTURE
     1 UNK         1 GROUP             0       ****    0 ROOT    
