@<TRIPOS>MOLECULE
3R136
137   139    1
SMALL
USER_CHARGES


@<TRIPOS>ATOM
      1 CA         29.1527   17.6231   -1.0211 C.3       0 UNK        -0.1979 
      2 C          30.3314   18.5701   -0.8473 C.2       0 UNK         0.4864 
      3 O          31.3036   18.4776   -1.5990 O.2       0 UNK        -0.5359 
      4 N          30.2514   19.4688    0.1419 N.am      1 UNK        -0.4318 
      5 CA         31.2427   20.5100    0.4282 C.3       1 UNK         0.0824 
      6 C6         31.4569   20.6702    1.9614 C.3       12 UNK        -0.0944 
      7 S7         29.9971   21.2914    2.8749 S.3       12 UNK        -0.2672 
      8 C8         30.7271   22.6979    3.7892 C.3       12 UNK         0.0333 
      9 C9         29.7425   23.7310    4.3412 C.ar      12 UNK        -0.0807 
     10 C10        30.2693   24.8367    5.0163 C.ar      12 UNK        -0.0894 
     11 C11        29.4391   25.8578    5.4935 C.ar      12 UNK        -0.0804 
     12 C12        28.0559   25.7349    5.3406 C.ar      12 UNK        -0.0824 
     13 C13        27.5089   24.6375    4.6712 C.ar      12 UNK        -0.0762 
     14 C14        28.3539   23.6417    4.1724 C.ar      12 UNK        -0.0782 
     15 C15        26.0053   24.5308    4.4682 C.3       12 UNK         0.0230 
     16 S16        25.4939   25.2544    2.8773 S.3       12 UNK        -0.2608 
     17 C17        25.5140   27.0444    3.2431 C.3       12 UNK        -0.0989 
     18 CA         26.7811   27.7726    2.7110 C.3       5 UNK         0.0716 
     19 N          26.9762   27.6038    1.2668 N.am      5 UNK        -0.4135 
     20 C          26.2428   28.1435    0.2796 C.2       4 UNK         0.5031 
     21 O          25.3204   28.9410    0.4547 O.2       4 UNK        -0.5229 
     22 CA         26.5755   27.6961   -1.1578 C.3       4 UNK         0.0329 
     23 CB         27.6252   28.6263   -1.7867 C.3       4 UNK        -0.2001 
     24 N          27.0531   26.3129   -1.2151 N.am      4 UNK        -0.4303 
     25 C          26.3094   25.2401   -0.9099 C.2       3 UNK         0.5044 
     26 O          25.0868   25.2865   -0.7663 O.2       3 UNK        -0.5152 
     27 CA         27.0307   23.8898   -0.7140 C.3       3 UNK         0.0319 
     28 CB         26.5165   22.8432   -1.7174 C.3       3 UNK        -0.2001 
     29 N          28.4969   23.9186   -0.7850 N.am      3 UNK        -0.4354 
     30 C          29.3399   24.5810    0.0184 C.2       2 UNK         0.4964 
     31 O          28.9769   25.3630    0.8983 O.2       2 UNK        -0.5047 
     32 CA         30.8398   24.3086   -0.2205 C.3       2 UNK         0.0288 
     33 CB         31.7416   25.3475    0.4669 C.3       2 UNK        -0.2113 
     34 N          31.2219   22.9739    0.2470 N.am      2 UNK        -0.4145 
     35 C          30.8811   21.8126   -0.3291 C.2       1 UNK         0.5006 
     36 O          30.2946   21.7551   -1.4146 O.2       1 UNK        -0.5103 
     37 C          26.8424   29.2519    3.1602 C.2       5 UNK         0.5055 
     38 O          26.0212   29.6832    3.9738 O.2       5 UNK        -0.5220 
     39 N          27.7990   30.0135    2.6118 N.am      6 UNK        -0.4450 
     40 CA         28.0240   31.4226    2.9460 C.3       6 UNK         0.0367 
     41 CB         28.8933   32.0708    1.8548 C.3       6 UNK        -0.1929 
     42 C          28.6608   31.5990    4.3378 C.2       6 UNK         0.5070 
     43 O          29.1951   30.6474    4.9089 O.2       6 UNK        -0.5237 
     44 N          28.6114   32.8334    4.8520 N.am      7 UNK        -0.4739 
     45 CA         29.1664   33.2121    6.1573 C.3       7 UNK         0.0276 
     46 CB         28.4106   34.4504    6.6700 C.3       7 UNK        -0.1927 
     47 C          30.6857   33.4781    6.1401 C.2       7 UNK         0.5013 
     48 O          31.2689   33.6725    7.2078 O.2       7 UNK        -0.5193 
     49 N          31.2973   33.5126    4.9511 N.am      8 UNK        -0.4253 
     50 CA         32.7097   33.8048    4.7165 C.3       8 UNK         0.0242 
     51 CB         32.9174   35.3331    4.6825 C.3       8 UNK        -0.2000 
     52 C          33.1472   33.1352    3.4053 C.2       8 UNK         0.4948 
     53 O          32.3389   32.4469    2.7775 O.2       8 UNK        -0.5275 
     54 N          34.4159   33.3468    3.0199 N.am      9 UNK        -0.4246 
     55 CA         35.0525   32.8881    1.7743 C.3       9 UNK         0.0261 
     56 CB         34.4508   33.6263    0.5587 C.3       9 UNK        -0.1959 
     57 C          35.0227   31.3557    1.6145 C.2       9 UNK         0.5033 
     58 O          34.5948   30.8466    0.5760 O.2       9 UNK        -0.5390 
     59 N          35.4318   30.6494    2.6809 N.am      10 UNK        -0.4215 
     60 CA         35.4172   29.1842    2.8288 C.3       10 UNK         0.0240 
     61 CB         36.4638   28.5327    1.8992 C.3       10 UNK        -0.1982 
     62 C          34.0110   28.5652    2.6674 C.2       10 UNK         0.4970 
     63 O          33.8912   27.4214    2.2272 O.2       10 UNK        -0.4916 
     64 N          32.9837   29.3499    3.0175 N.am      11 UNK        -0.4279 
     65 CA         31.5521   29.0722    2.8452 C.3       11 UNK         0.1003 
     66 C          31.0606   29.1129    1.3673 C.2       11 UNK         0.5709 
     67 N          31.8555   29.5605    0.4018 N.am      11 UNK        -0.7358 
     68 O          29.9086   28.7846    1.0947 O.2       11 UNK        -0.4999 
     69 C69        31.0528   27.8092    3.6009 C.3       12 UNK        -0.0954 
     70 S70        31.5326   27.7492    5.3632 S.3       12 UNK        -0.2268 
     71 C71        30.0125   27.1120    6.1539 C.3       12 UNK         0.0203 
     72 H72        29.4832   16.5896   -0.9208 H         1 UNK         0.0888 
     73 H73        28.3726   17.8026   -0.2814 H         1 UNK         0.0888 
     74 H74        28.7154   17.7474   -2.0114 H         1 UNK         0.0888 
     75 H75        29.4176   19.5081    0.7110 H         1 UNK         0.3017 
     76 H76        32.2041   20.1976    0.0149 H         1 UNK         0.0873 
     77 H77        32.3250   21.3012    2.1581 H         1 UNK         0.0745 
     78 H78        31.7197   19.7010    2.3887 H         1 UNK         0.0745 
     79 H79        31.3211   22.2985    4.6126 H         1 UNK         0.0705 
     80 H80        31.4208   23.2259    3.1348 H         1 UNK         0.0705 
     81 H81        31.3405   24.9204    5.1394 H         1 UNK         0.1334 
     82 H82        27.4033   26.5113    5.7157 H         1 UNK         0.1417 
     83 H83        27.9148   22.8096    3.6418 H         1 UNK         0.1562 
     84 H84        25.4677   25.0070    5.2895 H         1 UNK         0.0748 
     85 H85        25.7076   23.4812    4.4844 H         1 UNK         0.0748 
     86 H86        25.4130   27.1810    4.3209 H         1 UNK         0.0940 
     87 H87        24.6172   27.4864    2.8052 H         1 UNK         0.0940 
     88 H88        27.6499   27.2985    3.1650 H         1 UNK         0.0703 
     89 H89        27.7170   26.9551    1.0162 H         1 UNK         0.3081 
     90 H90        25.6590   27.7636   -1.7477 H         1 UNK         0.0719 
     91 H91        28.5789   28.5750   -1.2601 H         1 UNK         0.0809 
     92 H92        27.8042   28.3738   -2.8319 H         1 UNK         0.0809 
     93 H93        27.2930   29.6650   -1.7568 H         1 UNK         0.0809 
     94 H94        28.0479   26.1784   -1.3170 H         1 UNK         0.2990 
     95 H95        26.7712   23.5507    0.2910 H         1 UNK         0.0690 
     96 H96        26.9449   21.8600   -1.5203 H         1 UNK         0.0788 
     97 H97        26.7619   23.1175   -2.7441 H         1 UNK         0.0788 
     98 H98        25.4323   22.7379   -1.6575 H         1 UNK         0.0788 
     99 H99        28.9189   23.2572   -1.4290 H         1 UNK         0.2993 
    100 H100       31.0208   24.3698   -1.2959 H         1 UNK         0.0949 
    101 H101       31.4719   26.3610    0.1679 H         1 UNK         0.0767 
    102 H102       31.6588   25.2928    1.5518 H         1 UNK         0.0767 
    103 H103       32.7899   25.2030    0.2053 H         1 UNK         0.0767 
    104 H104       31.6787   22.9370    1.1448 H         1 UNK         0.3013 
    105 H105       28.4625   29.5753    1.9767 H         1 UNK         0.3121 
    106 H106       27.0537   31.9240    2.9523 H         1 UNK         0.0774 
    107 H107       28.9599   33.1503    1.9936 H         1 UNK         0.0815 
    108 H108       29.9118   31.6855    1.8616 H         1 UNK         0.0815 
    109 H109       28.4782   31.9006    0.8611 H         1 UNK         0.0815 
    110 H110       28.1628   33.5679    4.3223 H         1 UNK         0.2987 
    111 H111       28.9950   32.3953    6.8623 H         1 UNK         0.0949 
    112 H112       28.7595   34.7399    7.6623 H         1 UNK         0.0806 
    113 H113       28.5503   35.3099    6.0130 H         1 UNK         0.0806 
    114 H114       27.3406   34.2579    6.7507 H         1 UNK         0.0806 
    115 H115       30.7803   33.2519    4.1214 H         1 UNK         0.3010 
    116 H116       33.3051   33.3713    5.5229 H         1 UNK         0.0829 
    117 H117       32.5714   35.8014    5.6042 H         1 UNK         0.0813 
    118 H118       33.9700   35.5950    4.5726 H         1 UNK         0.0813 
    119 H119       32.3766   35.7923    3.8539 H         1 UNK         0.0813 
    120 H120       35.0030   33.9092    3.6208 H         1 UNK         0.3038 
    121 H121       36.1053   33.1675    1.8390 H         1 UNK         0.0769 
    122 H122       34.9828   33.3681   -0.3579 H         1 UNK         0.0811 
    123 H123       34.5174   34.7076    0.6777 H         1 UNK         0.0811 
    124 H124       33.4015   33.3695    0.4077 H         1 UNK         0.0811 
    125 H125       35.7508   31.1663    3.4893 H         1 UNK         0.3204 
    126 H126       35.7168   28.9773    3.8573 H         1 UNK         0.0748 
    127 H127       36.5570   27.4647    2.1005 H         1 UNK         0.0771 
    128 H128       36.1946   28.6424    0.8481 H         1 UNK         0.0771 
    129 H129       37.4503   28.9740    2.0408 H         1 UNK         0.0771 
    130 H130       33.1877   30.2945    3.3101 H         1 UNK         0.2980 
    131 H131       31.0649   29.9284    3.3067 H         1 UNK         0.0545 
    132 H132       32.7920   29.8941    0.6025 H         1 UNK         0.3459 
    133 H133       31.5044   29.5972   -0.5404 H         1 UNK         0.3459 
    134 H134       29.9654   27.7585    3.5398 H         1 UNK         0.0616 
    135 H135       31.4229   26.9038    3.1229 H         1 UNK         0.0616 
    136 H136       29.2737   27.9154    6.1460 H         1 UNK         0.0634 
    137 H137       30.2254   26.8944    7.2010 H         1 UNK         0.0634 
@<TRIPOS>BOND
     1    1    2 1    
     2    1   72 1    
     3    1   73 1    
     4    1   74 1    
     5    2    3 2    
     6    2    4 am   BACKBONE|DICT|INTERRES
     7    4    5 1    
     8    4   75 1    
     9    5    6 1    
    10    5   35 1    
    11    5   76 1    
    12    6    7 1    
    13    6   77 1    
    14    6   78 1    
    15    7    8 1    
    16    8    9 1    
    17    8   79 1    
    18    8   80 1    
    19    9   10 ar   
    20    9   14 ar   
    21   10   11 ar   
    22   10   81 1    
    23   11   12 ar   
    24   11   71 1    
    25   12   13 ar   
    26   12   82 1    
    27   13   14 ar   
    28   13   15 1    
    29   14   83 1    
    30   15   16 1    
    31   15   84 1    
    32   15   85 1    
    33   16   17 1    
    34   17   18 1    
    35   17   86 1    
    36   17   87 1    
    37   18   19 1    
    38   18   37 1    
    39   18   88 1    
    40   19   20 am   BACKBONE|DICT|INTERRES
    41   19   89 1    
    42   20   21 2    
    43   20   22 1    
    44   22   23 1    
    45   22   24 1    
    46   22   90 1    
    47   23   91 1    
    48   23   92 1    
    49   23   93 1    
    50   24   25 am   BACKBONE|DICT|INTERRES
    51   24   94 1    
    52   25   26 2    
    53   25   27 1    
    54   27   28 1    
    55   27   29 1    
    56   27   95 1    
    57   28   96 1    
    58   28   97 1    
    59   28   98 1    
    60   29   30 am   BACKBONE|DICT|INTERRES
    61   29   99 1    
    62   30   31 2    
    63   30   32 1    
    64   32   33 1    
    65   32   34 1    
    66   32  100 1    
    67   33  101 1    
    68   33  102 1    
    69   33  103 1    
    70   34   35 am   BACKBONE|DICT|INTERRES
    71   34  104 1    
    72   35   36 2    
    73   37   38 2    
    74   37   39 am   BACKBONE|DICT|INTERRES
    75   39   40 1    
    76   39  105 1    
    77   40   41 1    
    78   40   42 1    
    79   40  106 1    
    80   41  107 1    
    81   41  108 1    
    82   41  109 1    
    83   42   43 2    
    84   42   44 am   BACKBONE|DICT|INTERRES
    85   44   45 1    
    86   44  110 1    
    87   45   46 1    
    88   45   47 1    
    89   45  111 1    
    90   46  112 1    
    91   46  113 1    
    92   46  114 1    
    93   47   48 2    
    94   47   49 am   BACKBONE|DICT|INTERRES
    95   49   50 1    
    96   49  115 1    
    97   50   51 1    
    98   50   52 1    
    99   50  116 1    
   100   51  117 1    
   101   51  118 1    
   102   51  119 1    
   103   52   53 2    
   104   52   54 am   BACKBONE|DICT|INTERRES
   105   54   55 1    
   106   54  120 1    
   107   55   56 1    
   108   55   57 1    
   109   55  121 1    
   110   56  122 1    
   111   56  123 1    
   112   56  124 1    
   113   57   58 2    
   114   57   59 am   BACKBONE|DICT|INTERRES
   115   59   60 1    
   116   59  125 1    
   117   60   61 1    
   118   60   62 1    
   119   60  126 1    
   120   61  127 1    
   121   61  128 1    
   122   61  129 1    
   123   62   63 2    
   124   62   64 am   BACKBONE|DICT|INTERRES
   125   64   65 1    
   126   64  130 1    
   127   65   66 1    
   128   65   69 1    
   129   65  131 1    
   130   66   67 am   BACKBONE|DICT|INTERRES
   131   66   68 2    
   132   67  132 1    
   133   67  133 1    
   134   69   70 1    
   135   69  134 1    
   136   69  135 1    
   137   70   71 1    
   138   71  136 1    
   139   71  137 1    
@<TRIPOS>SUBSTRUCTURE
     1 UNK         1 GROUP             0       ****    0 ROOT    
