@<TRIPOS>MOLECULE
3R136
137   139    1
SMALL
USER_CHARGES


@<TRIPOS>ATOM
      1 CA         28.2995   18.7659   -0.6256 C.3       0 UNK        -0.1979 
      2 C          28.1471   20.1935   -1.1294 C.2       0 UNK         0.4864 
      3 O          27.4124   20.4268   -2.0899 O.2       0 UNK        -0.5359 
      4 N          28.8388   21.1467   -0.4895 N.am      1 UNK        -0.4318 
      5 CA         28.8173   22.5762   -0.8298 C.3       1 UNK         0.0824 
      6 C6         29.9508   23.3573   -0.1212 C.3       12 UNK        -0.0944 
      7 S7         31.6132   22.7736   -0.5995 S.3       12 UNK        -0.2672 
      8 C8         32.2351   22.0342    0.9456 C.3       12 UNK         0.0333 
      9 C9         32.4854   23.0851    2.0181 C.ar      12 UNK        -0.0807 
     10 C10        33.6407   23.8733    1.9758 C.ar      12 UNK        -0.0894 
     11 C11        33.8686   24.8468    2.9532 C.ar      12 UNK        -0.0804 
     12 C12        32.9306   25.0288    3.9738 C.ar      12 UNK        -0.0824 
     13 C13        31.7769   24.2438    4.0303 C.ar      12 UNK        -0.0762 
     14 C14        31.5641   23.2669    3.0547 C.ar      12 UNK        -0.0782 
     15 C15        30.7718   24.4401    5.1560 C.3       12 UNK         0.0230 
     16 S16        30.0173   26.0970    5.1317 S.3       12 UNK        -0.2608 
     17 C17        29.0123   26.0584    3.6054 C.3       12 UNK        -0.0989 
     18 CA         29.2346   27.2947    2.6958 C.3       5 UNK         0.0716 
     19 N          28.5976   27.1273    1.3841 N.am      5 UNK        -0.4135 
     20 C          28.7670   27.9633    0.3450 C.2       4 UNK         0.5031 
     21 O          29.5472   28.9142    0.3560 O.2       4 UNK        -0.5229 
     22 CA         27.8790   27.7582   -0.8968 C.3       4 UNK         0.0329 
     23 CB         28.6149   26.9609   -1.9830 C.3       4 UNK        -0.2001 
     24 N          26.5882   27.1367   -0.5888 N.am      4 UNK        -0.4303 
     25 C          25.6410   27.7333    0.1532 C.2       3 UNK         0.5044 
     26 O          25.7523   28.8773    0.5945 O.2       3 UNK        -0.5152 
     27 CA         24.3822   26.9236    0.5148 C.3       3 UNK         0.0319 
     28 CB         23.2202   27.3013   -0.4168 C.3       3 UNK        -0.2001 
     29 N          24.5587   25.4682    0.5007 N.am      3 UNK        -0.4354 
     30 C          25.4486   24.7763    1.2263 C.2       2 UNK         0.4964 
     31 O          26.2598   25.3003    1.9923 O.2       2 UNK        -0.5047 
     32 CA         25.4820   23.2468    1.0332 C.3       2 UNK         0.0288 
     33 CB         24.3595   22.6952    0.1234 C.3       2 UNK        -0.2113 
     34 N          26.7898   22.7888    0.5491 N.am      2 UNK        -0.4145 
     35 C          27.4524   23.2325   -0.5330 C.2       1 UNK         0.5006 
     36 O          27.0345   24.1191   -1.2810 O.2       1 UNK        -0.5103 
     37 C          28.7517   28.5944    3.3743 C.2       5 UNK         0.5055 
     38 O          29.5749   29.3733    3.8587 O.2       5 UNK        -0.5220 
     39 N          27.4293   28.8183    3.3635 N.am      6 UNK        -0.4450 
     40 CA         26.7889   30.0160    3.9077 C.3       6 UNK         0.0367 
     41 CB         25.2686   29.8037    3.9876 C.3       6 UNK        -0.1929 
     42 C          27.1263   31.2798    3.1015 C.2       6 UNK         0.5070 
     43 O          27.3886   32.3206    3.7029 O.2       6 UNK        -0.5237 
     44 N          27.1436   31.1626    1.7654 N.am      7 UNK        -0.4739 
     45 CA         27.4979   32.2446    0.8416 C.3       7 UNK         0.0276 
     46 CB         27.1933   31.8170   -0.6022 C.3       7 UNK        -0.1927 
     47 C          28.9621   32.6968    0.9755 C.2       7 UNK         0.5013 
     48 O          29.2233   33.9003    0.9636 O.2       7 UNK        -0.5193 
     49 N          29.8849   31.7343    1.1196 N.am      8 UNK        -0.4253 
     50 CA         31.3090   31.9892    1.3562 C.3       8 UNK         0.0242 
     51 CB         32.1093   30.7169    1.0335 C.3       8 UNK        -0.2000 
     52 C          31.6179   32.4550    2.7910 C.2       8 UNK         0.4948 
     53 O          32.6645   33.0694    3.0001 O.2       8 UNK        -0.5275 
     54 N          30.7175   32.1445    3.7374 N.am      9 UNK        -0.4246 
     55 CA         30.8574   32.2795    5.1915 C.3       9 UNK         0.0261 
     56 CB         31.0184   33.7549    5.6172 C.3       9 UNK        -0.1959 
     57 C          31.9699   31.3542    5.7197 C.2       9 UNK         0.5033 
     58 O          32.8988   31.8144    6.3878 O.2       9 UNK        -0.5390 
     59 N          31.8409   30.0629    5.3803 N.am      10 UNK        -0.4215 
     60 CA         32.8006   28.9729    5.5869 C.3       10 UNK         0.0240 
     61 CB         33.0858   28.7443    7.0885 C.3       10 UNK        -0.1982 
     62 C          34.0734   29.1412    4.7316 C.2       10 UNK         0.4970 
     63 O          34.0726   29.9062    3.7652 O.2       10 UNK        -0.4916 
     64 N          35.1154   28.3658    5.0502 N.am      11 UNK        -0.4279 
     65 CA         36.3846   28.3382    4.3084 C.3       11 UNK         0.1003 
     66 C          37.2878   29.5561    4.6420 C.2       11 UNK         0.5709 
     67 N          38.1097   29.9965    3.6987 N.am      11 UNK        -0.7358 
     68 O          37.2828   30.0769    5.7563 O.2       11 UNK        -0.4999 
     69 C69        37.1492   27.0006    4.5165 C.3       12 UNK        -0.0954 
     70 S70        36.1587   25.4668    4.3722 S.3       12 UNK        -0.2268 
     71 C71        35.1068   25.7283    2.9036 C.3       12 UNK         0.0203 
     72 H72        27.3327   18.3742   -0.3107 H         1 UNK         0.0888 
     73 H73        28.6838   18.1271   -1.4203 H         1 UNK         0.0888 
     74 H74        28.9834   18.7017    0.2206 H         1 UNK         0.0888 
     75 H75        29.4479   20.8858    0.2717 H         1 UNK         0.3017 
     76 H76        28.9751   22.6583   -1.9076 H         1 UNK         0.0873 
     77 H77        29.9065   24.4179   -0.3692 H         1 UNK         0.0745 
     78 H78        29.8257   23.3050    0.9596 H         1 UNK         0.0745 
     79 H79        31.5333   21.2773    1.2983 H         1 UNK         0.0705 
     80 H80        33.1663   21.5073    0.7320 H         1 UNK         0.0705 
     81 H81        34.3543   23.7334    1.1752 H         1 UNK         0.1334 
     82 H82        33.1013   25.7819    4.7303 H         1 UNK         0.1417 
     83 H83        30.6769   22.6503    3.0998 H         1 UNK         0.1562 
     84 H84        31.2804   24.3010    6.1109 H         1 UNK         0.0748 
     85 H85        29.9823   23.6878    5.1174 H         1 UNK         0.0748 
     86 H86        27.9634   25.9651    3.8921 H         1 UNK         0.0940 
     87 H87        29.2465   25.1508    3.0478 H         1 UNK         0.0940 
     88 H88        30.3081   27.3952    2.5193 H         1 UNK         0.0703 
     89 H89        27.8899   26.4039    1.3203 H         1 UNK         0.3081 
     90 H90        27.6697   28.7457   -1.3100 H         1 UNK         0.0719 
     91 H91        29.5467   27.4546   -2.2626 H         1 UNK         0.0809 
     92 H92        28.0119   26.8715   -2.8867 H         1 UNK         0.0809 
     93 H93        28.8685   25.9569   -1.6511 H         1 UNK         0.0809 
     94 H94        26.4500   26.1806   -0.8986 H         1 UNK         0.2990 
     95 H95        24.1069   27.2044    1.5335 H         1 UNK         0.0690 
     96 H96        22.2906   26.8226   -0.1080 H         1 UNK         0.0788 
     97 H97        23.4213   27.0135   -1.4496 H         1 UNK         0.0788 
     98 H98        23.0456   28.3784   -0.4066 H         1 UNK         0.0788 
     99 H99        23.9598   24.9491   -0.1252 H         1 UNK         0.2993 
    100 H100       25.3464   22.8171    2.0270 H         1 UNK         0.0949 
    101 H101       24.3975   21.6065    0.0797 H         1 UNK         0.0767 
    102 H102       23.3718   22.9609    0.5030 H         1 UNK         0.0767 
    103 H103       24.4387   23.0628   -0.9006 H         1 UNK         0.0767 
    104 H104       27.2339   22.0738    1.1071 H         1 UNK         0.3013 
    105 H105       26.8267   28.1455    2.9121 H         1 UNK         0.3121 
    106 H106       27.1639   30.1620    4.9233 H         1 UNK         0.0774 
    107 H107       24.8264   29.6439    3.0038 H         1 UNK         0.0815 
    108 H108       24.7784   30.6743    4.4255 H         1 UNK         0.0815 
    109 H109       25.0195   28.9453    4.6116 H         1 UNK         0.0815 
    110 H110       26.8434   30.2831    1.3523 H         1 UNK         0.2987 
    111 H111       26.8644   33.1012    1.0826 H         1 UNK         0.0949 
    112 H112       27.8426   31.0041   -0.9253 H         1 UNK         0.0806 
    113 H113       26.1596   31.4883   -0.7128 H         1 UNK         0.0806 
    114 H114       27.3467   32.6473   -1.2928 H         1 UNK         0.0806 
    115 H115       29.6024   30.7600    1.0507 H         1 UNK         0.3010 
    116 H116       31.6356   32.7788    0.6759 H         1 UNK         0.0829 
    117 H117       31.8276   29.8898    1.6873 H         1 UNK         0.0813 
    118 H118       31.9542   30.3984    0.0027 H         1 UNK         0.0813 
    119 H119       33.1792   30.8835    1.1662 H         1 UNK         0.0813 
    120 H120       29.9080   31.6152    3.4388 H         1 UNK         0.3038 
    121 H121       29.9218   31.9166    5.6206 H         1 UNK         0.0769 
    122 H122       30.9991   33.8473    6.7036 H         1 UNK         0.0811 
    123 H123       31.9619   34.1805    5.2750 H         1 UNK         0.0811 
    124 H124       30.2093   34.3701    5.2236 H         1 UNK         0.0811 
    125 H125       31.0341   29.8159    4.8055 H         1 UNK         0.3204 
    126 H126       32.3028   28.0808    5.2066 H         1 UNK         0.0748 
    127 H127       33.5860   27.7908    7.2593 H         1 UNK         0.0771 
    128 H128       33.7196   29.5277    7.5059 H         1 UNK         0.0771 
    129 H129       32.1609   28.7216    7.6651 H         1 UNK         0.0771 
    130 H130       35.0667   27.7752    5.8660 H         1 UNK         0.2980 
    131 H131       36.1499   28.4194    3.2459 H         1 UNK         0.0545 
    132 H132       38.1343   29.5703    2.7855 H         1 UNK         0.3459 
    133 H133       38.7150   30.7762    3.9030 H         1 UNK         0.3459 
    134 H134       37.9739   26.9306    3.8052 H         1 UNK         0.0616 
    135 H135       37.6077   26.9830    5.5072 H         1 UNK         0.0616 
    136 H136       35.6960   25.5349    2.0060 H         1 UNK         0.0634 
    137 H137       34.7635   26.7579    2.8331 H         1 UNK         0.0634 
@<TRIPOS>BOND
     1    1    2 1    
     2    1   72 1    
     3    1   73 1    
     4    1   74 1    
     5    2    3 2    
     6    2    4 am   BACKBONE|DICT|INTERRES
     7    4    5 1    
     8    4   75 1    
     9    5    6 1    
    10    5   35 1    
    11    5   76 1    
    12    6    7 1    
    13    6   77 1    
    14    6   78 1    
    15    7    8 1    
    16    8    9 1    
    17    8   79 1    
    18    8   80 1    
    19    9   10 ar   
    20    9   14 ar   
    21   10   11 ar   
    22   10   81 1    
    23   11   12 ar   
    24   11   71 1    
    25   12   13 ar   
    26   12   82 1    
    27   13   14 ar   
    28   13   15 1    
    29   14   83 1    
    30   15   16 1    
    31   15   84 1    
    32   15   85 1    
    33   16   17 1    
    34   17   18 1    
    35   17   86 1    
    36   17   87 1    
    37   18   19 1    
    38   18   37 1    
    39   18   88 1    
    40   19   20 am   BACKBONE|DICT|INTERRES
    41   19   89 1    
    42   20   21 2    
    43   20   22 1    
    44   22   23 1    
    45   22   24 1    
    46   22   90 1    
    47   23   91 1    
    48   23   92 1    
    49   23   93 1    
    50   24   25 am   BACKBONE|DICT|INTERRES
    51   24   94 1    
    52   25   26 2    
    53   25   27 1    
    54   27   28 1    
    55   27   29 1    
    56   27   95 1    
    57   28   96 1    
    58   28   97 1    
    59   28   98 1    
    60   29   30 am   BACKBONE|DICT|INTERRES
    61   29   99 1    
    62   30   31 2    
    63   30   32 1    
    64   32   33 1    
    65   32   34 1    
    66   32  100 1    
    67   33  101 1    
    68   33  102 1    
    69   33  103 1    
    70   34   35 am   BACKBONE|DICT|INTERRES
    71   34  104 1    
    72   35   36 2    
    73   37   38 2    
    74   37   39 am   BACKBONE|DICT|INTERRES
    75   39   40 1    
    76   39  105 1    
    77   40   41 1    
    78   40   42 1    
    79   40  106 1    
    80   41  107 1    
    81   41  108 1    
    82   41  109 1    
    83   42   43 2    
    84   42   44 am   BACKBONE|DICT|INTERRES
    85   44   45 1    
    86   44  110 1    
    87   45   46 1    
    88   45   47 1    
    89   45  111 1    
    90   46  112 1    
    91   46  113 1    
    92   46  114 1    
    93   47   48 2    
    94   47   49 am   BACKBONE|DICT|INTERRES
    95   49   50 1    
    96   49  115 1    
    97   50   51 1    
    98   50   52 1    
    99   50  116 1    
   100   51  117 1    
   101   51  118 1    
   102   51  119 1    
   103   52   53 2    
   104   52   54 am   BACKBONE|DICT|INTERRES
   105   54   55 1    
   106   54  120 1    
   107   55   56 1    
   108   55   57 1    
   109   55  121 1    
   110   56  122 1    
   111   56  123 1    
   112   56  124 1    
   113   57   58 2    
   114   57   59 am   BACKBONE|DICT|INTERRES
   115   59   60 1    
   116   59  125 1    
   117   60   61 1    
   118   60   62 1    
   119   60  126 1    
   120   61  127 1    
   121   61  128 1    
   122   61  129 1    
   123   62   63 2    
   124   62   64 am   BACKBONE|DICT|INTERRES
   125   64   65 1    
   126   64  130 1    
   127   65   66 1    
   128   65   69 1    
   129   65  131 1    
   130   66   67 am   BACKBONE|DICT|INTERRES
   131   66   68 2    
   132   67  132 1    
   133   67  133 1    
   134   69   70 1    
   135   69  134 1    
   136   69  135 1    
   137   70   71 1    
   138   71  136 1    
   139   71  137 1    
@<TRIPOS>SUBSTRUCTURE
     1 UNK         1 GROUP             0       ****    0 ROOT    
