@<TRIPOS>MOLECULE
3R136
137   139    1
SMALL
USER_CHARGES


@<TRIPOS>ATOM
      1 CA         28.6771   17.8636    0.6380 C.3       0 UNK        -0.1979 
      2 C          28.2663   19.0467   -0.2261 C.2       0 UNK         0.4864 
      3 O          27.6330   18.8545   -1.2648 O.2       0 UNK        -0.5359 
      4 N          28.6223   20.2679    0.1956 N.am      1 UNK        -0.4318 
      5 CA         28.3299   21.5208   -0.5165 C.3       1 UNK         0.0824 
      6 C6         29.1883   22.7039   -0.0022 C.3       12 UNK        -0.0944 
      7 S7         30.9821   22.3647   -0.0323 S.3       12 UNK        -0.2672 
      8 C8         31.4066   22.4051    1.7402 C.3       12 UNK         0.0333 
      9 C9         31.3707   23.8211    2.2989 C.ar      12 UNK        -0.0807 
     10 C10        32.4411   24.6911    2.0707 C.ar      12 UNK        -0.0894 
     11 C11        32.4229   26.0004    2.5622 C.ar      12 UNK        -0.0804 
     12 C12        31.3069   26.4302    3.2937 C.ar      12 UNK        -0.0824 
     13 C13        30.2291   25.5720    3.5286 C.ar      12 UNK        -0.0762 
     14 C14        30.2716   24.2645    3.0398 C.ar      12 UNK        -0.0782 
     15 C15        29.0082   26.0634    4.2929 C.3       12 UNK         0.0230 
     16 S16        27.6526   26.5264    3.1665 S.3       12 UNK        -0.2608 
     17 C17        28.3679   27.9623    2.2996 C.3       12 UNK        -0.0989 
     18 CA         28.8711   27.6046    0.8809 C.3       5 UNK         0.0716 
     19 N          27.7790   27.1725    0.0031 N.am      5 UNK        -0.4135 
     20 C          27.9334   26.5360   -1.1638 C.2       4 UNK         0.5031 
     21 O          29.0306   26.2092   -1.6188 O.2       4 UNK        -0.5229 
     22 CA         26.6471   26.2276   -1.9576 C.3       4 UNK         0.0329 
     23 CB         26.9156   25.3734   -3.2113 C.3       4 UNK        -0.2001 
     24 N          25.6036   25.5860   -1.1471 N.am      4 UNK        -0.4303 
     25 C          24.7799   26.2324   -0.3069 C.2       3 UNK         0.5044 
     26 O          24.8930   27.4330   -0.0534 O.2       3 UNK        -0.5152 
     27 CA         23.6342   25.4435    0.3552 C.3       3 UNK         0.0319 
     28 CB         22.2936   25.7940   -0.3112 C.3       3 UNK        -0.2001 
     29 N          23.8162   23.9921    0.3140 N.am      3 UNK        -0.4354 
     30 C          24.6059   23.3035    1.1469 C.2       2 UNK         0.4964 
     31 O          25.2419   23.8168    2.0677 O.2       2 UNK        -0.5047 
     32 CA         24.7356   21.7860    0.9118 C.3       2 UNK         0.0288 
     33 CB         23.7500   21.2076   -0.1312 C.3       2 UNK        -0.2113 
     34 N          26.1192   21.4370    0.5740 N.am      2 UNK        -0.4145 
     35 C          26.8370   21.9095   -0.4588 C.2       1 UNK         0.5006 
     36 O          26.3753   22.6506   -1.3285 O.2       1 UNK        -0.5103 
     37 C          29.6608   28.7892    0.2894 C.2       5 UNK         0.5055 
     38 O          30.8605   28.8965    0.5417 O.2       5 UNK        -0.5220 
     39 N          28.9720   29.6658   -0.4598 N.am      6 UNK        -0.4450 
     40 CA         29.4498   30.8766   -1.1464 C.3       6 UNK         0.0367 
     41 CB         30.5212   30.5404   -2.2022 C.3       6 UNK        -0.1929 
     42 C          29.9267   32.0105   -0.2176 C.2       6 UNK         0.5070 
     43 O          29.5304   33.1579   -0.4232 O.2       6 UNK        -0.5237 
     44 N          30.7537   31.6847    0.7795 N.am      7 UNK        -0.4739 
     45 CA         31.3361   32.6129    1.7448 C.3       7 UNK         0.0276 
     46 CB         32.6594   33.1783    1.1920 C.3       7 UNK        -0.1927 
     47 C          31.5064   31.8943    3.0884 C.2       7 UNK         0.5013 
     48 O          32.6279   31.7627    3.5802 O.2       7 UNK        -0.5193 
     49 N          30.3838   31.4397    3.6655 N.am      8 UNK        -0.4253 
     50 CA         30.3077   30.6440    4.9011 C.3       8 UNK         0.0242 
     51 CB         28.8313   30.4062    5.2614 C.3       8 UNK        -0.2000 
     52 C          31.0512   31.2319    6.1172 C.2       8 UNK         0.4948 
     53 O          31.5323   30.4666    6.9517 O.2       8 UNK        -0.5275 
     54 N          31.1446   32.5671    6.1892 N.am      9 UNK        -0.4246 
     55 CA         31.8960   33.2962    7.2133 C.3       9 UNK         0.0261 
     56 CB         31.4363   34.7635    7.2240 C.3       9 UNK        -0.1959 
     57 C          33.4252   33.2156    7.0360 C.2       9 UNK         0.5033 
     58 O          34.1435   33.3666    8.0255 O.2       9 UNK        -0.5390 
     59 N          33.9005   33.0017    5.8005 N.am      10 UNK        -0.4215 
     60 CA         35.3204   32.8524    5.4725 C.3       10 UNK         0.0240 
     61 CB         35.5870   33.4187    4.0676 C.3       10 UNK        -0.1982 
     62 C          35.7689   31.3852    5.5559 C.2       10 UNK         0.4970 
     63 O          36.9195   31.1319    5.9154 O.2       10 UNK        -0.4916 
     64 N          34.8646   30.4546    5.2220 N.am      11 UNK        -0.4279 
     65 CA         35.0580   28.9999    5.3174 C.3       11 UNK         0.1003 
     66 C          35.3695   28.5123    6.7608 C.2       11 UNK         0.5709 
     67 N          36.1621   27.4576    6.8982 N.am      11 UNK        -0.7358 
     68 O          34.8736   29.0499    7.7492 O.2       11 UNK        -0.4999 
     69 C69        33.8377   28.2379    4.7425 C.3       12 UNK        -0.0954 
     70 S70        33.5776   28.5820    2.9698 S.3       12 UNK        -0.2268 
     71 C71        33.6204   26.9039    2.2499 C.3       12 UNK         0.0203 
     72 H72        27.7949   17.3165    0.9693 H         1 UNK         0.0888 
     73 H73        29.3059   17.1822    0.0657 H         1 UNK         0.0888 
     74 H74        29.2338   18.1765    1.5212 H         1 UNK         0.0888 
     75 H75        29.1677   20.3613    1.0399 H         1 UNK         0.3017 
     76 H76        28.5734   21.3650   -1.5699 H         1 UNK         0.0873 
     77 H77        28.8811   22.9834    1.0056 H         1 UNK         0.0745 
     78 H78        29.0174   23.5883   -0.6190 H         1 UNK         0.0745 
     79 H79        30.7336   21.7506    2.2959 H         1 UNK         0.0705 
     80 H80        32.4076   21.9909    1.8702 H         1 UNK         0.0705 
     81 H81        33.2895   24.3481    1.4938 H         1 UNK         0.1334 
     82 H82        31.2552   27.4399    3.6706 H         1 UNK         0.1417 
     83 H83        29.4367   23.6018    3.2224 H         1 UNK         0.1562 
     84 H84        29.2626   26.9135    4.9282 H         1 UNK         0.0748 
     85 H85        28.6563   25.2781    4.9636 H         1 UNK         0.0748 
     86 H86        29.1791   28.3712    2.9035 H         1 UNK         0.0940 
     87 H87        27.6076   28.7443    2.2518 H         1 UNK         0.0940 
     88 H88        29.5728   26.7717    0.9646 H         1 UNK         0.0703 
     89 H89        26.8319   27.3853    0.3009 H         1 UNK         0.3081 
     90 H90        26.2624   27.1885   -2.3060 H         1 UNK         0.0719 
     91 H91        27.3807   24.4200   -2.9603 H         1 UNK         0.0809 
     92 H92        25.9959   25.1659   -3.7583 H         1 UNK         0.0809 
     93 H93        27.5890   25.8894   -3.8969 H         1 UNK         0.0809 
     94 H94        25.5207   24.5795   -1.2432 H         1 UNK         0.2990 
     95 H95        23.5847   25.7605    1.3994 H         1 UNK         0.0690 
     96 H96        21.4602   25.3015    0.1902 H         1 UNK         0.0788 
     97 H97        22.2752   25.5014   -1.3618 H         1 UNK         0.0788 
     98 H98        22.1049   26.8678   -0.2689 H         1 UNK         0.0788 
     99 H99        23.3456   23.4910   -0.4261 H         1 UNK         0.2993 
    100 H100       24.5173   21.3122    1.8702 H         1 UNK         0.0949 
    101 H101       22.7152   21.4074    0.1504 H         1 UNK         0.0767 
    102 H102       23.9094   21.6145   -1.1303 H         1 UNK         0.0767 
    103 H103       23.8548   20.1247   -0.2023 H         1 UNK         0.0767 
    104 H104       26.5996   20.8560    1.2460 H         1 UNK         0.3013 
    105 H105       27.9824   29.4900   -0.5640 H         1 UNK         0.3121 
    106 H106       28.5824   31.2648   -1.6831 H         1 UNK         0.0774 
    107 H107       31.4363   30.1570   -1.7498 H         1 UNK         0.0815 
    108 H108       30.7927   31.4276   -2.7758 H         1 UNK         0.0815 
    109 H109       30.1598   29.7943   -2.9099 H         1 UNK         0.0815 
    110 H110       31.0139   30.7029    0.8732 H         1 UNK         0.2987 
    111 H111       30.6508   33.4462    1.9157 H         1 UNK         0.0949 
    112 H112       33.3874   32.3873    1.0072 H         1 UNK         0.0806 
    113 H113       32.5024   33.7146    0.2562 H         1 UNK         0.0806 
    114 H114       33.1088   33.8803    1.8953 H         1 UNK         0.0806 
    115 H115       29.5106   31.6081    3.1870 H         1 UNK         0.3010 
    116 H116       30.7680   29.6790    4.6817 H         1 UNK         0.0829 
    117 H117       28.2846   29.9271    4.4511 H         1 UNK         0.0813 
    118 H118       28.7434   29.7573    6.1341 H         1 UNK         0.0813 
    119 H119       28.3204   31.3402    5.4990 H         1 UNK         0.0813 
    120 H120       30.7035   33.1169    5.4664 H         1 UNK         0.3038 
    121 H121       31.6576   32.8589    8.1855 H         1 UNK         0.0769 
    122 H122       31.6365   35.2575    6.2724 H         1 UNK         0.0811 
    123 H123       31.9556   35.3288    7.9994 H         1 UNK         0.0811 
    124 H124       30.3685   34.8441    7.4281 H         1 UNK         0.0811 
    125 H125       33.2485   32.8093    5.0448 H         1 UNK         0.3204 
    126 H126       35.9197   33.4262    6.1828 H         1 UNK         0.0748 
    127 H127       36.6502   33.3756    3.8275 H         1 UNK         0.0771 
    128 H128       35.0581   32.8586    3.2957 H         1 UNK         0.0771 
    129 H129       35.2801   34.4622    3.9951 H         1 UNK         0.0771 
    130 H130       33.9644   30.7573    4.8710 H         1 UNK         0.2980 
    131 H131       35.9270   28.7623    4.7007 H         1 UNK         0.0545 
    132 H132       36.5663   26.9996    6.0962 H         1 UNK         0.3459 
    133 H133       36.3656   27.1164    7.8246 H         1 UNK         0.3459 
    134 H134       33.9608   27.1616    4.8769 H         1 UNK         0.0616 
    135 H135       32.9298   28.5084    5.2841 H         1 UNK         0.0616 
    136 H136       33.6880   27.0138    1.1667 H         1 UNK         0.0634 
    137 H137       34.5399   26.4105    2.5684 H         1 UNK         0.0634 
@<TRIPOS>BOND
     1    1    2 1    
     2    1   72 1    
     3    1   73 1    
     4    1   74 1    
     5    2    3 2    
     6    2    4 am   BACKBONE|DICT|INTERRES
     7    4    5 1    
     8    4   75 1    
     9    5    6 1    
    10    5   35 1    
    11    5   76 1    
    12    6    7 1    
    13    6   77 1    
    14    6   78 1    
    15    7    8 1    
    16    8    9 1    
    17    8   79 1    
    18    8   80 1    
    19    9   10 ar   
    20    9   14 ar   
    21   10   11 ar   
    22   10   81 1    
    23   11   12 ar   
    24   11   71 1    
    25   12   13 ar   
    26   12   82 1    
    27   13   14 ar   
    28   13   15 1    
    29   14   83 1    
    30   15   16 1    
    31   15   84 1    
    32   15   85 1    
    33   16   17 1    
    34   17   18 1    
    35   17   86 1    
    36   17   87 1    
    37   18   19 1    
    38   18   37 1    
    39   18   88 1    
    40   19   20 am   BACKBONE|DICT|INTERRES
    41   19   89 1    
    42   20   21 2    
    43   20   22 1    
    44   22   23 1    
    45   22   24 1    
    46   22   90 1    
    47   23   91 1    
    48   23   92 1    
    49   23   93 1    
    50   24   25 am   BACKBONE|DICT|INTERRES
    51   24   94 1    
    52   25   26 2    
    53   25   27 1    
    54   27   28 1    
    55   27   29 1    
    56   27   95 1    
    57   28   96 1    
    58   28   97 1    
    59   28   98 1    
    60   29   30 am   BACKBONE|DICT|INTERRES
    61   29   99 1    
    62   30   31 2    
    63   30   32 1    
    64   32   33 1    
    65   32   34 1    
    66   32  100 1    
    67   33  101 1    
    68   33  102 1    
    69   33  103 1    
    70   34   35 am   BACKBONE|DICT|INTERRES
    71   34  104 1    
    72   35   36 2    
    73   37   38 2    
    74   37   39 am   BACKBONE|DICT|INTERRES
    75   39   40 1    
    76   39  105 1    
    77   40   41 1    
    78   40   42 1    
    79   40  106 1    
    80   41  107 1    
    81   41  108 1    
    82   41  109 1    
    83   42   43 2    
    84   42   44 am   BACKBONE|DICT|INTERRES
    85   44   45 1    
    86   44  110 1    
    87   45   46 1    
    88   45   47 1    
    89   45  111 1    
    90   46  112 1    
    91   46  113 1    
    92   46  114 1    
    93   47   48 2    
    94   47   49 am   BACKBONE|DICT|INTERRES
    95   49   50 1    
    96   49  115 1    
    97   50   51 1    
    98   50   52 1    
    99   50  116 1    
   100   51  117 1    
   101   51  118 1    
   102   51  119 1    
   103   52   53 2    
   104   52   54 am   BACKBONE|DICT|INTERRES
   105   54   55 1    
   106   54  120 1    
   107   55   56 1    
   108   55   57 1    
   109   55  121 1    
   110   56  122 1    
   111   56  123 1    
   112   56  124 1    
   113   57   58 2    
   114   57   59 am   BACKBONE|DICT|INTERRES
   115   59   60 1    
   116   59  125 1    
   117   60   61 1    
   118   60   62 1    
   119   60  126 1    
   120   61  127 1    
   121   61  128 1    
   122   61  129 1    
   123   62   63 2    
   124   62   64 am   BACKBONE|DICT|INTERRES
   125   64   65 1    
   126   64  130 1    
   127   65   66 1    
   128   65   69 1    
   129   65  131 1    
   130   66   67 am   BACKBONE|DICT|INTERRES
   131   66   68 2    
   132   67  132 1    
   133   67  133 1    
   134   69   70 1    
   135   69  134 1    
   136   69  135 1    
   137   70   71 1    
   138   71  136 1    
   139   71  137 1    
@<TRIPOS>SUBSTRUCTURE
     1 UNK         1 GROUP             0       ****    0 ROOT    
