@<TRIPOS>MOLECULE
3R136
137   139    1
SMALL
USER_CHARGES


@<TRIPOS>ATOM
      1 CA         30.1390   21.3440    5.1459 C.3       0 UNK        -0.1979 
      2 C          28.8687   21.1169    4.3391 C.2       0 UNK         0.4864 
      3 O          27.9033   20.5561    4.8606 O.2       0 UNK        -0.5359 
      4 N          28.8669   21.5422    3.0700 N.am      1 UNK        -0.4318 
      5 CA         27.7111   21.4995    2.1709 C.3       1 UNK         0.0824 
      6 C6         28.1529   21.4629    0.6818 C.3       12 UNK        -0.0944 
      7 S7         29.0375   22.9581    0.1173 S.3       12 UNK        -0.2672 
      8 C8         30.7731   22.4348    0.2407 C.3       12 UNK         0.0333 
      9 C9         31.6898   23.6426    0.3495 C.ar      12 UNK        -0.0807 
     10 C10        32.0594   24.1378    1.6044 C.ar      12 UNK        -0.0894 
     11 C11        32.9189   25.2362    1.7126 C.ar      12 UNK        -0.0804 
     12 C12        33.4002   25.8443    0.5476 C.ar      12 UNK        -0.0824 
     13 C13        33.0340   25.3622   -0.7129 C.ar      12 UNK        -0.0762 
     14 C14        32.1806   24.2582   -0.8045 C.ar      12 UNK        -0.0782 
     15 C15        33.6099   25.9921   -1.9745 C.3       12 UNK         0.0230 
     16 S16        32.3260   26.5885   -3.1204 S.3       12 UNK        -0.2608 
     17 C17        31.8508   28.1911   -2.3893 C.3       12 UNK        -0.0989 
     18 CA         30.3131   28.2910   -2.1940 C.3       5 UNK         0.0716 
     19 N          29.8158   27.3838   -1.1483 N.am      5 UNK        -0.4135 
     20 C          29.9276   27.5569    0.1785 C.2       4 UNK         0.5031 
     21 O          30.5593   28.4831    0.6868 O.2       4 UNK        -0.5229 
     22 CA         29.1274   26.5932    1.0813 C.3       4 UNK         0.0329 
     23 CB         28.7533   27.2374    2.4292 C.3       4 UNK        -0.2001 
     24 N          27.9227   26.0247    0.4570 N.am      4 UNK        -0.4303 
     25 C          26.9083   26.6803   -0.1299 C.2       3 UNK         0.5044 
     26 O          26.8646   27.9028   -0.2739 O.2       3 UNK        -0.5152 
     27 CA         25.7694   25.8158   -0.6934 C.3       3 UNK         0.0319 
     28 CB         26.1496   25.2650   -2.0776 C.3       3 UNK        -0.2001 
     29 N          25.4070   24.7061    0.1911 N.am      3 UNK        -0.4354 
     30 C          24.7276   24.8450    1.3397 C.2       2 UNK         0.4964 
     31 O          24.3091   25.9232    1.7623 O.2       2 UNK        -0.5047 
     32 CA         24.4551   23.5656    2.1532 C.3       2 UNK         0.0288 
     33 CB         23.0915   22.9660    1.7716 C.3       2 UNK        -0.2113 
     34 N          25.4939   22.5403    2.0056 N.am      2 UNK        -0.4145 
     35 C          26.7442   22.6663    2.4719 C.2       1 UNK         0.5006 
     36 O          27.1444   23.6623    3.0820 O.2       1 UNK        -0.5103 
     37 C          29.8097   29.7492   -2.0171 C.2       5 UNK         0.5055 
     38 O          30.5191   30.6910   -2.3754 O.2       5 UNK        -0.5220 
     39 N          28.5978   29.9066   -1.4545 N.am      6 UNK        -0.4450 
     40 CA         27.9431   31.1617   -1.0641 C.3       6 UNK         0.0367 
     41 CB         27.6457   32.0436   -2.2958 C.3       6 UNK        -0.1929 
     42 C          28.6737   31.9326    0.0578 C.2       6 UNK         0.5070 
     43 O          28.4238   33.1268    0.2287 O.2       6 UNK        -0.5237 
     44 N          29.5388   31.2503    0.8188 N.am      7 UNK        -0.4739 
     45 CA         30.3287   31.8027    1.9164 C.3       7 UNK         0.0276 
     46 CB         31.8050   31.8664    1.4804 C.3       7 UNK        -0.1927 
     47 C          30.1081   30.9487    3.1730 C.2       7 UNK         0.5013 
     48 O          31.0667   30.4182    3.7353 O.2       7 UNK        -0.5193 
     49 N          28.8362   30.8258    3.5849 N.am      8 UNK        -0.4253 
     50 CA         28.3801   30.0723    4.7594 C.3       8 UNK         0.0242 
     51 CB         26.8644   30.2607    4.9299 C.3       8 UNK        -0.2000 
     52 C          29.1308   30.4721    6.0400 C.2       8 UNK         0.4948 
     53 O          29.1931   31.6618    6.3590 O.2       8 UNK        -0.5275 
     54 N          29.7389   29.4779    6.7031 N.am      9 UNK        -0.4246 
     55 CA         30.6646   29.5629    7.8444 C.3       9 UNK         0.0261 
     56 CB         30.0044   30.2183    9.0734 C.3       9 UNK        -0.1959 
     57 C          32.0168   30.2277    7.5164 C.2       9 UNK         0.5033 
     58 O          33.0513   29.7298    7.9635 O.2       9 UNK        -0.5390 
     59 N          31.9968   31.3132    6.7320 N.am      10 UNK        -0.4215 
     60 CA         33.1562   32.0865    6.2797 C.3       10 UNK         0.0240 
     61 CB         32.6722   33.2916    5.4573 C.3       10 UNK        -0.1982 
     62 C          34.1964   31.2698    5.4918 C.2       10 UNK         0.4970 
     63 O          35.3868   31.5688    5.5984 O.2       10 UNK        -0.4916 
     64 N          33.7489   30.2508    4.7448 N.am      11 UNK        -0.4279 
     65 CA         34.6159   29.2767    4.0658 C.3       11 UNK         0.1003 
     66 C          35.4241   28.3297    5.0059 C.2       11 UNK         0.5709 
     67 N          35.1514   28.2738    6.3055 N.am      11 UNK        -0.7358 
     68 O          36.3297   27.6394    4.5438 O.2       11 UNK        -0.4999 
     69 C69        33.8605   28.5066    2.9492 C.3       12 UNK        -0.0954 
     70 S70        32.6083   27.3159    3.5509 S.3       12 UNK        -0.2268 
     71 C71        33.3619   25.7230    3.0890 C.3       12 UNK         0.0203 
     72 H72        29.9274   21.9777    6.0067 H         1 UNK         0.0888 
     73 H73        30.5279   20.3932    5.5094 H         1 UNK         0.0888 
     74 H74        30.9183   21.8246    4.5546 H         1 UNK         0.0888 
     75 H75        29.6624   22.0502    2.7161 H         1 UNK         0.3017 
     76 H76        27.1666   20.5738    2.3712 H         1 UNK         0.0873 
     77 H77        27.2841   21.3265    0.0356 H         1 UNK         0.0745 
     78 H78        28.7788   20.5869    0.5036 H         1 UNK         0.0745 
     79 H79        30.9138   21.7852    1.1051 H         1 UNK         0.0705 
     80 H80        31.0315   21.8371   -0.6349 H         1 UNK         0.0705 
     81 H81        31.6860   23.6603    2.4996 H         1 UNK         0.1334 
     82 H82        34.0755   26.6835    0.6183 H         1 UNK         0.1417 
     83 H83        31.9026   23.8756   -1.7774 H         1 UNK         0.1562 
     84 H84        34.2101   25.2410   -2.4900 H         1 UNK         0.0748 
     85 H85        34.2904   26.8110   -1.7355 H         1 UNK         0.0748 
     86 H86        32.2164   28.9600   -3.0721 H         1 UNK         0.0940 
     87 H87        32.3699   28.3538   -1.4430 H         1 UNK         0.0940 
     88 H88        29.8428   27.9579   -3.1206 H         1 UNK         0.0703 
     89 H89        29.2849   26.5901   -1.4744 H         1 UNK         0.3081 
     90 H90        29.7920   25.7558    1.2899 H         1 UNK         0.0719 
     91 H91        29.6442   27.5672    2.9646 H         1 UNK         0.0809 
     92 H92        28.1111   28.1077    2.2909 H         1 UNK         0.0809 
     93 H93        28.2311   26.5304    3.0742 H         1 UNK         0.0809 
     94 H94        27.8682   25.0148    0.4917 H         1 UNK         0.2990 
     95 H95        24.8946   26.4588   -0.8139 H         1 UNK         0.0690 
     96 H96        25.3190   24.7215   -2.5285 H         1 UNK         0.0788 
     97 H97        27.0041   24.5886   -2.0273 H         1 UNK         0.0788 
     98 H98        26.4126   26.0740   -2.7609 H         1 UNK         0.0788 
     99 H99        25.6997   23.7812   -0.0871 H         1 UNK         0.2993 
    100 H100       24.4173   23.8550    3.2060 H         1 UNK         0.0949 
    101 H101       22.2940   23.7001    1.8966 H         1 UNK         0.0767 
    102 H102       23.0704   22.6362    0.7320 H         1 UNK         0.0767 
    103 H103       22.8431   22.1114    2.4014 H         1 UNK         0.0767 
    104 H104       25.2318   21.6950    1.5185 H         1 UNK         0.3013 
    105 H105       28.0935   29.0717   -1.1623 H         1 UNK         0.3121 
    106 H106       26.9833   30.8670   -0.6372 H         1 UNK         0.0774 
    107 H107       28.5574   32.4514   -2.7331 H         1 UNK         0.0815 
    108 H108       27.0111   32.8890   -2.0275 H         1 UNK         0.0815 
    109 H109       27.1227   31.4821   -3.0697 H         1 UNK         0.0815 
    110 H110       29.7014   30.2632    0.6329 H         1 UNK         0.2987 
    111 H111       30.0025   32.8149    2.1647 H         1 UNK         0.0949 
    112 H112       32.1713   30.8854    1.1773 H         1 UNK         0.0806 
    113 H113       31.9365   32.5438    0.6368 H         1 UNK         0.0806 
    114 H114       32.4455   32.2230    2.2875 H         1 UNK         0.0806 
    115 H115       28.1242   31.3105    3.0589 H         1 UNK         0.3010 
    116 H116       28.5710   29.0171    4.5641 H         1 UNK         0.0829 
    117 H117       26.4953   29.6988    5.7891 H         1 UNK         0.0813 
    118 H118       26.6043   31.3080    5.0898 H         1 UNK         0.0813 
    119 H119       26.3185   29.9070    4.0549 H         1 UNK         0.0813 
    120 H120       29.6437   28.5476    6.3193 H         1 UNK         0.3038 
    121 H121       30.8890   28.5288    8.1116 H         1 UNK         0.0769 
    122 H122       29.7752   31.2709    8.9053 H         1 UNK         0.0811 
    123 H123       30.6651   30.1679    9.9398 H         1 UNK         0.0811 
    124 H124       29.0776   29.7120    9.3428 H         1 UNK         0.0811 
    125 H125       31.0807   31.6326    6.4258 H         1 UNK         0.3204 
    126 H126       33.6564   32.4639    7.1737 H         1 UNK         0.0748 
    127 H127       33.5134   33.8899    5.1043 H         1 UNK         0.0771 
    128 H128       32.1022   32.9785    4.5826 H         1 UNK         0.0771 
    129 H129       32.0362   33.9471    6.0526 H         1 UNK         0.0771 
    130 H130       32.7473   30.1170    4.6296 H         1 UNK         0.2980 
    131 H131       35.3762   29.8694    3.5535 H         1 UNK         0.0545 
    132 H132       35.6909   27.6590    6.8931 H         1 UNK         0.3459 
    133 H133       34.4146   28.8388    6.7123 H         1 UNK         0.3459 
    134 H134       33.3533   29.2118    2.2909 H         1 UNK         0.0616 
    135 H135       34.5859   27.9949    2.3179 H         1 UNK         0.0616 
    136 H136       33.0888   24.9915    3.8508 H         1 UNK         0.0634 
    137 H137       34.4498   25.7944    3.1255 H         1 UNK         0.0634 
@<TRIPOS>BOND
     1    1    2 1    
     2    1   72 1    
     3    1   73 1    
     4    1   74 1    
     5    2    3 2    
     6    2    4 am   BACKBONE|DICT|INTERRES
     7    4    5 1    
     8    4   75 1    
     9    5    6 1    
    10    5   35 1    
    11    5   76 1    
    12    6    7 1    
    13    6   77 1    
    14    6   78 1    
    15    7    8 1    
    16    8    9 1    
    17    8   79 1    
    18    8   80 1    
    19    9   10 ar   
    20    9   14 ar   
    21   10   11 ar   
    22   10   81 1    
    23   11   12 ar   
    24   11   71 1    
    25   12   13 ar   
    26   12   82 1    
    27   13   14 ar   
    28   13   15 1    
    29   14   83 1    
    30   15   16 1    
    31   15   84 1    
    32   15   85 1    
    33   16   17 1    
    34   17   18 1    
    35   17   86 1    
    36   17   87 1    
    37   18   19 1    
    38   18   37 1    
    39   18   88 1    
    40   19   20 am   BACKBONE|DICT|INTERRES
    41   19   89 1    
    42   20   21 2    
    43   20   22 1    
    44   22   23 1    
    45   22   24 1    
    46   22   90 1    
    47   23   91 1    
    48   23   92 1    
    49   23   93 1    
    50   24   25 am   BACKBONE|DICT|INTERRES
    51   24   94 1    
    52   25   26 2    
    53   25   27 1    
    54   27   28 1    
    55   27   29 1    
    56   27   95 1    
    57   28   96 1    
    58   28   97 1    
    59   28   98 1    
    60   29   30 am   BACKBONE|DICT|INTERRES
    61   29   99 1    
    62   30   31 2    
    63   30   32 1    
    64   32   33 1    
    65   32   34 1    
    66   32  100 1    
    67   33  101 1    
    68   33  102 1    
    69   33  103 1    
    70   34   35 am   BACKBONE|DICT|INTERRES
    71   34  104 1    
    72   35   36 2    
    73   37   38 2    
    74   37   39 am   BACKBONE|DICT|INTERRES
    75   39   40 1    
    76   39  105 1    
    77   40   41 1    
    78   40   42 1    
    79   40  106 1    
    80   41  107 1    
    81   41  108 1    
    82   41  109 1    
    83   42   43 2    
    84   42   44 am   BACKBONE|DICT|INTERRES
    85   44   45 1    
    86   44  110 1    
    87   45   46 1    
    88   45   47 1    
    89   45  111 1    
    90   46  112 1    
    91   46  113 1    
    92   46  114 1    
    93   47   48 2    
    94   47   49 am   BACKBONE|DICT|INTERRES
    95   49   50 1    
    96   49  115 1    
    97   50   51 1    
    98   50   52 1    
    99   50  116 1    
   100   51  117 1    
   101   51  118 1    
   102   51  119 1    
   103   52   53 2    
   104   52   54 am   BACKBONE|DICT|INTERRES
   105   54   55 1    
   106   54  120 1    
   107   55   56 1    
   108   55   57 1    
   109   55  121 1    
   110   56  122 1    
   111   56  123 1    
   112   56  124 1    
   113   57   58 2    
   114   57   59 am   BACKBONE|DICT|INTERRES
   115   59   60 1    
   116   59  125 1    
   117   60   61 1    
   118   60   62 1    
   119   60  126 1    
   120   61  127 1    
   121   61  128 1    
   122   61  129 1    
   123   62   63 2    
   124   62   64 am   BACKBONE|DICT|INTERRES
   125   64   65 1    
   126   64  130 1    
   127   65   66 1    
   128   65   69 1    
   129   65  131 1    
   130   66   67 am   BACKBONE|DICT|INTERRES
   131   66   68 2    
   132   67  132 1    
   133   67  133 1    
   134   69   70 1    
   135   69  134 1    
   136   69  135 1    
   137   70   71 1    
   138   71  136 1    
   139   71  137 1    
@<TRIPOS>SUBSTRUCTURE
     1 UNK         1 GROUP             0       ****    0 ROOT    
