@<TRIPOS>MOLECULE
3R136
137   139    1
SMALL
USER_CHARGES


@<TRIPOS>ATOM
      1 CA         27.3207   17.7421    1.6821 C.3       0 UNK        -0.1979 
      2 C          27.7666   18.9888    0.9321 C.2       0 UNK         0.4864 
      3 O          27.5673   19.0769   -0.2809 O.2       0 UNK        -0.5359 
      4 N          28.3761   19.9468    1.6419 N.am      1 UNK        -0.4318 
      5 CA         28.8333   21.2319    1.1004 C.3       1 UNK         0.0824 
      6 C6         29.8318   21.9405    2.0500 C.3       12 UNK        -0.0944 
      7 S7         31.2609   20.8908    2.4922 S.3       12 UNK        -0.2672 
      8 C8         32.4364   21.2321    1.1426 C.3       12 UNK         0.0333 
      9 C9         32.9788   22.6521    1.2005 C.ar      12 UNK        -0.0807 
     10 C10        33.8777   23.0209    2.2062 C.ar      12 UNK        -0.0894 
     11 C11        34.3602   24.3307    2.2797 C.ar      12 UNK        -0.0804 
     12 C12        33.9474   25.2705    1.3313 C.ar      12 UNK        -0.0824 
     13 C13        33.0524   24.9132    0.3194 C.ar      12 UNK        -0.0762 
     14 C14        32.5799   23.5990    0.2523 C.ar      12 UNK        -0.0782 
     15 C15        32.5889   25.9503   -0.6946 C.3       12 UNK         0.0230 
     16 S16        30.7927   26.2354   -0.6043 S.3       12 UNK        -0.2608 
     17 C17        30.5903   26.9084    1.0839 C.3       12 UNK        -0.0989 
     18 CA         29.9546   28.3205    1.0960 C.3       5 UNK         0.0716 
     19 N          28.6971   28.3542    0.3426 N.am      5 UNK        -0.4135 
     20 C          28.0899   29.4623   -0.1047 C.2       4 UNK         0.5031 
     21 O          28.5100   30.6013    0.0869 O.2       4 UNK        -0.5229 
     22 CA         26.7519   29.2762   -0.8433 C.3       4 UNK         0.0329 
     23 CB         26.9966   29.0781   -2.3473 C.3       4 UNK        -0.2001 
     24 N          25.9490   28.1630   -0.3315 N.am      4 UNK        -0.4303 
     25 C          25.5594   28.0049    0.9422 C.2       3 UNK         0.5044 
     26 O          25.7842   28.8271    1.8309 O.2       3 UNK        -0.5152 
     27 CA         24.8701   26.6756    1.2978 C.3       3 UNK         0.0319 
     28 CB         23.3428   26.8336    1.2463 C.3       3 UNK        -0.2001 
     29 N          25.2783   25.5531    0.4416 N.am      3 UNK        -0.4354 
     30 C          26.5299   25.0804    0.3442 C.2       2 UNK         0.4964 
     31 O          27.4898   25.5486    0.9599 O.2       2 UNK        -0.5047 
     32 CA         26.7570   23.9531   -0.6754 C.3       2 UNK         0.0288 
     33 CB         27.1750   24.5466   -2.0315 C.3       2 UNK        -0.2113 
     34 N          27.7825   23.0054   -0.2340 N.am      2 UNK        -0.4145 
     35 C          27.6327   22.1503    0.7867 C.2       1 UNK         0.5006 
     36 O          26.6062   22.0742    1.4697 O.2       1 UNK        -0.5103 
     37 C          29.7928   28.8229    2.5482 C.2       5 UNK         0.5055 
     38 O          30.7991   29.1516    3.1801 O.2       5 UNK        -0.5220 
     39 N          28.5527   28.8614    3.0585 N.am      6 UNK        -0.4450 
     40 CA         28.2022   29.4388    4.3553 C.3       6 UNK         0.0367 
     41 CB         27.1299   28.5714    5.0344 C.3       6 UNK        -0.1929 
     42 C          27.7103   30.8852    4.1947 C.2       6 UNK         0.5070 
     43 O          28.0359   31.7216    5.0361 O.2       6 UNK        -0.5237 
     44 N          26.9467   31.1611    3.1249 N.am      7 UNK        -0.4739 
     45 CA         26.4426   32.4939    2.7762 C.3       7 UNK         0.0276 
     46 CB         25.4320   32.3831    1.6237 C.3       7 UNK        -0.1927 
     47 C          27.5748   33.4746    2.4283 C.2       7 UNK         0.5013 
     48 O          27.6346   34.5627    3.0021 O.2       7 UNK        -0.5193 
     49 N          28.4820   33.0474    1.5416 N.am      8 UNK        -0.4253 
     50 CA         29.7734   33.6816    1.2955 C.3       8 UNK         0.0242 
     51 CB         30.0503   33.7053   -0.2194 C.3       8 UNK        -0.2000 
     52 C          30.8046   32.8610    2.0802 C.2       8 UNK         0.4948 
     53 O          31.4877   32.0191    1.4963 O.2       8 UNK        -0.5275 
     54 N          30.8074   33.0758    3.4045 N.am      9 UNK        -0.4246 
     55 CA         31.4762   32.2888    4.4448 C.3       9 UNK         0.0261 
     56 CB         31.3685   33.0386    5.7842 C.3       9 UNK        -0.1959 
     57 C          32.9368   31.9164    4.1362 C.2       9 UNK         0.5033 
     58 O          33.8235   32.7655    4.2581 O.2       9 UNK        -0.5390 
     59 N          33.1418   30.6528    3.7484 N.am      10 UNK        -0.4215 
     60 CA         34.4433   30.0314    3.5239 C.3       10 UNK         0.0240 
     61 CB         34.3025   28.9860    2.3976 C.3       10 UNK        -0.1982 
     62 C          34.9624   29.4575    4.8550 C.2       10 UNK         0.4970 
     63 O          35.3649   30.2260    5.7294 O.2       10 UNK        -0.4916 
     64 N          34.9367   28.1272    4.9959 N.am      11 UNK        -0.4279 
     65 CA         35.2894   27.3950    6.2228 C.3       11 UNK         0.1003 
     66 C          34.2395   27.4918    7.3706 C.2       11 UNK         0.5709 
     67 N          33.0363   28.0030    7.1350 N.am      11 UNK        -0.7358 
     68 O          34.5308   27.1088    8.5013 O.2       11 UNK        -0.4999 
     69 C69        35.6843   25.9248    5.9136 C.3       12 UNK        -0.0954 
     70 S70        34.4236   25.0229    4.9457 S.3       12 UNK        -0.2268 
     71 C71        35.3177   24.7355    3.3882 C.3       12 UNK         0.0203 
     72 H72        27.5738   17.7912    2.7411 H         1 UNK         0.0888 
     73 H73        26.2413   17.6193    1.5969 H         1 UNK         0.0888 
     74 H74        27.7994   16.8588    1.2601 H         1 UNK         0.0888 
     75 H75        28.5064   19.8252    2.6357 H         1 UNK         0.3017 
     76 H76        29.3495   21.0254    0.1601 H         1 UNK         0.0873 
     77 H77        30.1892   22.8738    1.6120 H         1 UNK         0.0745 
     78 H78        29.3333   22.2231    2.9794 H         1 UNK         0.0745 
     79 H79        31.9543   21.0342    0.1840 H         1 UNK         0.0705 
     80 H80        33.2677   20.5294    1.2156 H         1 UNK         0.0705 
     81 H81        34.1856   22.2928    2.9446 H         1 UNK         0.1334 
     82 H82        34.3195   26.2832    1.3834 H         1 UNK         0.1417 
     83 H83        31.8846   23.3234   -0.5289 H         1 UNK         0.1562 
     84 H84        32.8428   25.6065   -1.6982 H         1 UNK         0.0748 
     85 H85        33.1073   26.9003   -0.5538 H         1 UNK         0.0748 
     86 H86        31.5588   26.9334    1.5856 H         1 UNK         0.0940 
     87 H87        29.9805   26.2037    1.6525 H         1 UNK         0.0940 
     88 H88        30.6496   29.0062    0.6059 H         1 UNK         0.0703 
     89 H89        28.2667   27.4518    0.1798 H         1 UNK         0.3081 
     90 H90        26.1682   30.1880   -0.7098 H         1 UNK         0.0719 
     91 H91        27.5759   29.9056   -2.7597 H         1 UNK         0.0809 
     92 H92        26.0586   29.0352   -2.9010 H         1 UNK         0.0809 
     93 H93        27.5503   28.1602   -2.5501 H         1 UNK         0.0809 
     94 H94        25.7118   27.4355   -0.9894 H         1 UNK         0.2990 
     95 H95        25.1548   26.4290    2.3229 H         1 UNK         0.0690 
     96 H96        22.8382   25.9293    1.5871 H         1 UNK         0.0788 
     97 H97        22.9920   27.0559    0.2377 H         1 UNK         0.0788 
     98 H98        23.0135   27.6485    1.8930 H         1 UNK         0.0788 
     99 H99        24.5500   25.1201   -0.1089 H         1 UNK         0.2993 
    100 H100       25.8228   23.4020   -0.8058 H         1 UNK         0.0949 
    101 H101       26.4152   25.2296   -2.4137 H         1 UNK         0.0767 
    102 H102       28.1086   25.1066   -1.9567 H         1 UNK         0.0767 
    103 H103       27.3113   23.7668   -2.7812 H         1 UNK         0.0767 
    104 H104       28.6661   23.0432   -0.7200 H         1 UNK         0.3013 
    105 H105       27.7763   28.5818    2.4713 H         1 UNK         0.3121 
    106 H106       29.0798   29.4541    5.0054 H         1 UNK         0.0774 
    107 H107       26.8776   28.9677    6.0188 H         1 UNK         0.0815 
    108 H108       26.2073   28.5312    4.4547 H         1 UNK         0.0815 
    109 H109       27.4804   27.5492    5.1768 H         1 UNK         0.0815 
    110 H110       26.6548   30.3934    2.5271 H         1 UNK         0.2987 
    111 H111       25.9193   32.8880    3.6503 H         1 UNK         0.0949 
    112 H112       24.6155   31.7053    1.8740 H         1 UNK         0.0806 
    113 H113       24.9908   33.3551    1.3993 H         1 UNK         0.0806 
    114 H114       25.9000   32.0204    0.7090 H         1 UNK         0.0806 
    115 H115       28.3743   32.1211    1.1301 H         1 UNK         0.3010 
    116 H116       29.7882   34.7104    1.6619 H         1 UNK         0.0829 
    117 H117       29.3002   34.2934   -0.7479 H         1 UNK         0.0813 
    118 H118       31.0229   34.1518   -0.4290 H         1 UNK         0.0813 
    119 H119       30.0515   32.7034   -0.6507 H         1 UNK         0.0813 
    120 H120       30.1767   33.7861    3.7489 H         1 UNK         0.3038 
    121 H121       30.9048   31.3661    4.5516 H         1 UNK         0.0769 
    122 H122       31.8406   34.0207    5.7365 H         1 UNK         0.0811 
    123 H123       31.8567   32.4803    6.5843 H         1 UNK         0.0811 
    124 H124       30.3279   33.1785    6.0783 H         1 UNK         0.0811 
    125 H125       32.3231   30.0603    3.6073 H         1 UNK         0.3204 
    126 H126       35.1592   30.7869    3.1937 H         1 UNK         0.0748 
    127 H127       35.2488   28.4768    2.2095 H         1 UNK         0.0771 
    128 H128       33.5475   28.2330    2.6268 H         1 UNK         0.0771 
    129 H129       34.0068   29.4640    1.4630 H         1 UNK         0.0771 
    130 H130       34.5707   27.5619    4.2451 H         1 UNK         0.2980 
    131 H131       36.1840   27.8731    6.6263 H         1 UNK         0.0545 
    132 H132       32.7830   28.3105    6.2109 H         1 UNK         0.3459 
    133 H133       32.3715   28.0633    7.8896 H         1 UNK         0.3459 
    134 H134       36.6301   25.9142    5.3700 H         1 UNK         0.0616 
    135 H135       35.8780   25.3693    6.8331 H         1 UNK         0.0616 
    136 H136       35.8601   25.6387    3.1039 H         1 UNK         0.0634 
    137 H137       36.0670   23.9571    3.5394 H         1 UNK         0.0634 
@<TRIPOS>BOND
     1    1    2 1    
     2    1   72 1    
     3    1   73 1    
     4    1   74 1    
     5    2    3 2    
     6    2    4 am   BACKBONE|DICT|INTERRES
     7    4    5 1    
     8    4   75 1    
     9    5    6 1    
    10    5   35 1    
    11    5   76 1    
    12    6    7 1    
    13    6   77 1    
    14    6   78 1    
    15    7    8 1    
    16    8    9 1    
    17    8   79 1    
    18    8   80 1    
    19    9   10 ar   
    20    9   14 ar   
    21   10   11 ar   
    22   10   81 1    
    23   11   12 ar   
    24   11   71 1    
    25   12   13 ar   
    26   12   82 1    
    27   13   14 ar   
    28   13   15 1    
    29   14   83 1    
    30   15   16 1    
    31   15   84 1    
    32   15   85 1    
    33   16   17 1    
    34   17   18 1    
    35   17   86 1    
    36   17   87 1    
    37   18   19 1    
    38   18   37 1    
    39   18   88 1    
    40   19   20 am   BACKBONE|DICT|INTERRES
    41   19   89 1    
    42   20   21 2    
    43   20   22 1    
    44   22   23 1    
    45   22   24 1    
    46   22   90 1    
    47   23   91 1    
    48   23   92 1    
    49   23   93 1    
    50   24   25 am   BACKBONE|DICT|INTERRES
    51   24   94 1    
    52   25   26 2    
    53   25   27 1    
    54   27   28 1    
    55   27   29 1    
    56   27   95 1    
    57   28   96 1    
    58   28   97 1    
    59   28   98 1    
    60   29   30 am   BACKBONE|DICT|INTERRES
    61   29   99 1    
    62   30   31 2    
    63   30   32 1    
    64   32   33 1    
    65   32   34 1    
    66   32  100 1    
    67   33  101 1    
    68   33  102 1    
    69   33  103 1    
    70   34   35 am   BACKBONE|DICT|INTERRES
    71   34  104 1    
    72   35   36 2    
    73   37   38 2    
    74   37   39 am   BACKBONE|DICT|INTERRES
    75   39   40 1    
    76   39  105 1    
    77   40   41 1    
    78   40   42 1    
    79   40  106 1    
    80   41  107 1    
    81   41  108 1    
    82   41  109 1    
    83   42   43 2    
    84   42   44 am   BACKBONE|DICT|INTERRES
    85   44   45 1    
    86   44  110 1    
    87   45   46 1    
    88   45   47 1    
    89   45  111 1    
    90   46  112 1    
    91   46  113 1    
    92   46  114 1    
    93   47   48 2    
    94   47   49 am   BACKBONE|DICT|INTERRES
    95   49   50 1    
    96   49  115 1    
    97   50   51 1    
    98   50   52 1    
    99   50  116 1    
   100   51  117 1    
   101   51  118 1    
   102   51  119 1    
   103   52   53 2    
   104   52   54 am   BACKBONE|DICT|INTERRES
   105   54   55 1    
   106   54  120 1    
   107   55   56 1    
   108   55   57 1    
   109   55  121 1    
   110   56  122 1    
   111   56  123 1    
   112   56  124 1    
   113   57   58 2    
   114   57   59 am   BACKBONE|DICT|INTERRES
   115   59   60 1    
   116   59  125 1    
   117   60   61 1    
   118   60   62 1    
   119   60  126 1    
   120   61  127 1    
   121   61  128 1    
   122   61  129 1    
   123   62   63 2    
   124   62   64 am   BACKBONE|DICT|INTERRES
   125   64   65 1    
   126   64  130 1    
   127   65   66 1    
   128   65   69 1    
   129   65  131 1    
   130   66   67 am   BACKBONE|DICT|INTERRES
   131   66   68 2    
   132   67  132 1    
   133   67  133 1    
   134   69   70 1    
   135   69  134 1    
   136   69  135 1    
   137   70   71 1    
   138   71  136 1    
   139   71  137 1    
@<TRIPOS>SUBSTRUCTURE
     1 UNK         1 GROUP             0       ****    0 ROOT    
