@<TRIPOS>MOLECULE
3R136
137   139    1
SMALL
USER_CHARGES


@<TRIPOS>ATOM
      1 CA         32.8377   28.4471   -4.1492 C.3       0 UNK        -0.1979 
      2 C          32.0965   27.9936   -2.9007 C.2       0 UNK         0.4864 
      3 O          32.5076   28.3380   -1.7911 O.2       0 UNK        -0.5359 
      4 N          31.0124   27.2289   -3.0733 N.am      1 UNK        -0.4318 
      5 CA         30.1385   26.7392   -2.0096 C.3       1 UNK         0.0824 
      6 C6         30.7905   25.6137   -1.1583 C.3       12 UNK        -0.0944 
      7 S7         30.1429   25.5903    0.5433 S.3       12 UNK        -0.2672 
      8 C8         30.9222   24.0805    1.1824 C.3       12 UNK         0.0333 
      9 C9         30.9733   24.1241    2.6991 C.ar      12 UNK        -0.0807 
     10 C10        32.1094   24.6181    3.3439 C.ar      12 UNK        -0.0894 
     11 C11        32.1525   24.7081    4.7372 C.ar      12 UNK        -0.0804 
     12 C12        31.0425   24.3037    5.4859 C.ar      12 UNK        -0.0824 
     13 C13        29.8988   23.8005    4.8540 C.ar      12 UNK        -0.0762 
     14 C14        29.8800   23.6975    3.4575 C.ar      12 UNK        -0.0782 
     15 C15        28.7066   23.3562    5.7010 C.3       12 UNK         0.0230 
     16 S16        27.0719   23.7728    4.9962 S.3       12 UNK        -0.2608 
     17 C17        27.1711   25.5882    4.8244 C.3       12 UNK        -0.0989 
     18 CA         27.0039   26.0370    3.3446 C.3       5 UNK         0.0716 
     19 N          25.7253   25.6506    2.7312 N.am      5 UNK        -0.4135 
     20 C          24.4956   26.0187    3.1259 C.2       4 UNK         0.5031 
     21 O          24.2783   26.7084    4.1229 O.2       4 UNK        -0.5229 
     22 CA         23.2941   25.5917    2.2536 C.3       4 UNK         0.0329 
     23 CB         22.5519   26.8291    1.7176 C.3       4 UNK        -0.2001 
     24 N          23.6546   24.7419    1.1162 N.am      4 UNK        -0.4303 
     25 C          23.9632   23.4398    1.1832 C.2       3 UNK         0.5044 
     26 O          23.8819   22.7704    2.2129 O.2       3 UNK        -0.5152 
     27 CA         24.4817   22.7768   -0.1102 C.3       3 UNK         0.0319 
     28 CB         23.3633   21.9591   -0.7767 C.3       3 UNK        -0.2001 
     29 N          25.0550   23.7030   -1.1000 N.am      3 UNK        -0.4354 
     30 C          26.0954   24.5212   -0.8879 C.2       2 UNK         0.4964 
     31 O          26.6634   24.6392    0.2018 O.2       2 UNK        -0.5047 
     32 CA         26.5359   25.3956   -2.0679 C.3       2 UNK         0.0288 
     33 CB         25.5403   26.5458   -2.3068 C.3       2 UNK        -0.2113 
     34 N          27.8524   25.9371   -1.7531 N.am      2 UNK        -0.4145 
     35 C          28.7940   26.3091   -2.6235 C.2       1 UNK         0.5006 
     36 O          28.6440   26.3054   -3.8497 O.2       1 UNK        -0.5103 
     37 C          27.3117   27.5325    3.1169 C.2       5 UNK         0.5055 
     38 O          27.9456   28.1749    3.9570 O.2       5 UNK        -0.5220 
     39 N          26.8876   28.0609    1.9588 N.am      6 UNK        -0.4450 
     40 CA         27.1709   29.4182    1.4873 C.3       6 UNK         0.0367 
     41 CB         26.0609   29.8510    0.5114 C.3       6 UNK        -0.1929 
     42 C          28.5754   29.4821    0.8584 C.2       6 UNK         0.5070 
     43 O          28.7116   29.7355   -0.3395 O.2       6 UNK        -0.5237 
     44 N          29.5896   29.1853    1.6762 N.am      7 UNK        -0.4739 
     45 CA         30.9934   29.1008    1.2857 C.3       7 UNK         0.0276 
     46 CB         31.7736   28.4002    2.4092 C.3       7 UNK        -0.1927 
     47 C          31.6056   30.4777    0.9942 C.2       7 UNK         0.5013 
     48 O          31.2586   31.4606    1.6541 O.2       7 UNK        -0.5193 
     49 N          32.5548   30.5040    0.0504 N.am      8 UNK        -0.4253 
     50 CA         33.4509   31.6391   -0.1882 C.3       8 UNK         0.0242 
     51 CB         34.1192   31.4760   -1.5631 C.3       8 UNK        -0.2000 
     52 C          34.5127   31.7878    0.9198 C.2       8 UNK         0.4948 
     53 O          34.9844   32.9000    1.1610 O.2       8 UNK        -0.5275 
     54 N          34.8641   30.6701    1.5710 N.am      9 UNK        -0.4246 
     55 CA         35.7177   30.6127    2.7576 C.3       9 UNK         0.0261 
     56 CB         36.2645   29.1821    2.8997 C.3       9 UNK        -0.1959 
     57 C          34.9368   31.0139    4.0206 C.2       9 UNK         0.5033 
     58 O          33.7076   30.9152    4.0459 O.2       9 UNK        -0.5390 
     59 N          35.6640   31.4122    5.0722 N.am      10 UNK        -0.4215 
     60 CA         35.1243   31.8246    6.3743 C.3       10 UNK         0.0240 
     61 CB         36.1734   32.6952    7.0928 C.3       10 UNK        -0.1982 
     62 C          34.6458   30.6356    7.2379 C.2       10 UNK         0.4970 
     63 O          35.0873   30.4824    8.3786 O.2       10 UNK        -0.4916 
     64 N          33.7621   29.8084    6.6724 N.am      11 UNK        -0.4279 
     65 CA         33.1109   28.6666    7.3281 C.3       11 UNK         0.1003 
     66 C          32.0988   29.1103    8.4191 C.2       11 UNK         0.5709 
     67 N          31.9161   28.3054    9.4572 N.am      11 UNK        -0.7358 
     68 O          31.4536   30.1529    8.3179 O.2       11 UNK        -0.4999 
     69 C69        32.4330   27.7393    6.2872 C.3       12 UNK        -0.0954 
     70 S70        33.6507   27.0085    5.1422 S.3       12 UNK        -0.2268 
     71 C71        33.4095   25.2267    5.4225 C.3       12 UNK         0.0203 
     72 H72        33.8733   28.1106   -4.1123 H         1 UNK         0.0888 
     73 H73        32.3843   28.0526   -5.0584 H         1 UNK         0.0888 
     74 H74        32.8346   29.5349   -4.2117 H         1 UNK         0.0888 
     75 H75        30.6781   27.0016   -4.0025 H         1 UNK         0.3017 
     76 H76        29.9187   27.5978   -1.3745 H         1 UNK         0.0873 
     77 H77        31.8674   25.7679   -1.0778 H         1 UNK         0.0745 
     78 H78        30.6644   24.6327   -1.6214 H         1 UNK         0.0745 
     79 H79        31.9308   23.9835    0.7772 H         1 UNK         0.0705 
     80 H80        30.3623   23.2084    0.8411 H         1 UNK         0.0705 
     81 H81        32.9586   24.9485    2.7611 H         1 UNK         0.1334 
     82 H82        31.0726   24.3748    6.5647 H         1 UNK         0.1417 
     83 H83        29.0046   23.3088    2.9552 H         1 UNK         0.1562 
     84 H84        28.7656   23.7935    6.6991 H         1 UNK         0.0748 
     85 H85        28.7615   22.2753    5.8356 H         1 UNK         0.0748 
     86 H86        28.1307   25.9261    5.2199 H         1 UNK         0.0940 
     87 H87        26.4139   26.0454    5.4622 H         1 UNK         0.0940 
     88 H88        27.7662   25.5157    2.7643 H         1 UNK         0.0703 
     89 H89        25.8189   25.0939    1.8869 H         1 UNK         0.3081 
     90 H90        22.6106   25.0353    2.8984 H         1 UNK         0.0719 
     91 H91        23.1904   27.4379    1.0761 H         1 UNK         0.0809 
     92 H92        21.6695   26.5457    1.1434 H         1 UNK         0.0809 
     93 H93        22.2099   27.4666    2.5343 H         1 UNK         0.0809 
     94 H94        23.7352   25.1974    0.2191 H         1 UNK         0.2990 
     95 H95        25.2766   22.0888    0.1850 H         1 UNK         0.0690 
     96 H96        23.7383   21.3931   -1.6297 H         1 UNK         0.0788 
     97 H97        22.5503   22.5969   -1.1259 H         1 UNK         0.0788 
     98 H98        22.9351   21.2391   -0.0775 H         1 UNK         0.0788 
     99 H99        24.6352   23.6868   -2.0190 H         1 UNK         0.2993 
    100 H100       26.6065   24.7682   -2.9593 H         1 UNK         0.0949 
    101 H101       25.8763   27.2012   -3.1107 H         1 UNK         0.0767 
    102 H102       24.5587   26.1661   -2.5924 H         1 UNK         0.0767 
    103 H103       25.4078   27.1557   -1.4130 H         1 UNK         0.0767 
    104 H104       28.0952   25.8745   -0.7695 H         1 UNK         0.3013 
    105 H105       26.4096   27.4527    1.3115 H         1 UNK         0.3121 
    106 H106       27.1564   30.1052    2.3364 H         1 UNK         0.0774 
    107 H107       26.2163   30.8784    0.1799 H         1 UNK         0.0815 
    108 H108       26.0360   29.2241   -0.3800 H         1 UNK         0.0815 
    109 H109       25.0784   29.8082    0.9817 H         1 UNK         0.0815 
    110 H110       29.3696   28.9823    2.6448 H         1 UNK         0.2987 
    111 H111       31.0586   28.4871    0.3879 H         1 UNK         0.0949 
    112 H112       32.8083   28.2196    2.1171 H         1 UNK         0.0806 
    113 H113       31.7935   29.0025    3.3182 H         1 UNK         0.0806 
    114 H114       31.3375   27.4333    2.6606 H         1 UNK         0.0806 
    115 H115       32.7044   29.6698   -0.5170 H         1 UNK         0.3010 
    116 H116       32.8550   32.5543   -0.2016 H         1 UNK         0.0829 
    117 H117       33.3775   31.4413   -2.3612 H         1 UNK         0.0813 
    118 H118       34.7856   32.3131   -1.7756 H         1 UNK         0.0813 
    119 H119       34.7123   30.5622   -1.6183 H         1 UNK         0.0813 
    120 H120       34.3893   29.8166    1.3206 H         1 UNK         0.3038 
    121 H121       36.5539   31.3029    2.6259 H         1 UNK         0.0769 
    122 H122       36.9292   29.0962    3.7602 H         1 UNK         0.0811 
    123 H123       36.8373   28.8870    2.0203 H         1 UNK         0.0811 
    124 H124       35.4624   28.4554    3.0365 H         1 UNK         0.0811 
    125 H125       36.6705   31.4190    4.9861 H         1 UNK         0.3204 
    126 H126       34.2478   32.4516    6.1964 H         1 UNK         0.0748 
    127 H127       35.7880   33.0701    8.0421 H         1 UNK         0.0771 
    128 H128       37.0844   32.1353    7.3084 H         1 UNK         0.0771 
    129 H129       36.4465   33.5640    6.4934 H         1 UNK         0.0771 
    130 H130       33.4650   30.0173    5.7236 H         1 UNK         0.2980 
    131 H131       33.8952   28.0944    7.8281 H         1 UNK         0.0545 
    132 H132       31.2536   28.5689   10.1697 H         1 UNK         0.3459 
    133 H133       32.4321   27.4441    9.5477 H         1 UNK         0.3459 
    134 H134       31.8867   26.9373    6.7864 H         1 UNK         0.0616 
    135 H135       31.6936   28.2894    5.7026 H         1 UNK         0.0616 
    136 H136       33.3903   25.0225    6.4942 H         1 UNK         0.0634 
    137 H137       34.2744   24.6928    5.0265 H         1 UNK         0.0634 
@<TRIPOS>BOND
     1    1    2 1    
     2    1   72 1    
     3    1   73 1    
     4    1   74 1    
     5    2    3 2    
     6    2    4 am   BACKBONE|DICT|INTERRES
     7    4    5 1    
     8    4   75 1    
     9    5    6 1    
    10    5   35 1    
    11    5   76 1    
    12    6    7 1    
    13    6   77 1    
    14    6   78 1    
    15    7    8 1    
    16    8    9 1    
    17    8   79 1    
    18    8   80 1    
    19    9   10 ar   
    20    9   14 ar   
    21   10   11 ar   
    22   10   81 1    
    23   11   12 ar   
    24   11   71 1    
    25   12   13 ar   
    26   12   82 1    
    27   13   14 ar   
    28   13   15 1    
    29   14   83 1    
    30   15   16 1    
    31   15   84 1    
    32   15   85 1    
    33   16   17 1    
    34   17   18 1    
    35   17   86 1    
    36   17   87 1    
    37   18   19 1    
    38   18   37 1    
    39   18   88 1    
    40   19   20 am   BACKBONE|DICT|INTERRES
    41   19   89 1    
    42   20   21 2    
    43   20   22 1    
    44   22   23 1    
    45   22   24 1    
    46   22   90 1    
    47   23   91 1    
    48   23   92 1    
    49   23   93 1    
    50   24   25 am   BACKBONE|DICT|INTERRES
    51   24   94 1    
    52   25   26 2    
    53   25   27 1    
    54   27   28 1    
    55   27   29 1    
    56   27   95 1    
    57   28   96 1    
    58   28   97 1    
    59   28   98 1    
    60   29   30 am   BACKBONE|DICT|INTERRES
    61   29   99 1    
    62   30   31 2    
    63   30   32 1    
    64   32   33 1    
    65   32   34 1    
    66   32  100 1    
    67   33  101 1    
    68   33  102 1    
    69   33  103 1    
    70   34   35 am   BACKBONE|DICT|INTERRES
    71   34  104 1    
    72   35   36 2    
    73   37   38 2    
    74   37   39 am   BACKBONE|DICT|INTERRES
    75   39   40 1    
    76   39  105 1    
    77   40   41 1    
    78   40   42 1    
    79   40  106 1    
    80   41  107 1    
    81   41  108 1    
    82   41  109 1    
    83   42   43 2    
    84   42   44 am   BACKBONE|DICT|INTERRES
    85   44   45 1    
    86   44  110 1    
    87   45   46 1    
    88   45   47 1    
    89   45  111 1    
    90   46  112 1    
    91   46  113 1    
    92   46  114 1    
    93   47   48 2    
    94   47   49 am   BACKBONE|DICT|INTERRES
    95   49   50 1    
    96   49  115 1    
    97   50   51 1    
    98   50   52 1    
    99   50  116 1    
   100   51  117 1    
   101   51  118 1    
   102   51  119 1    
   103   52   53 2    
   104   52   54 am   BACKBONE|DICT|INTERRES
   105   54   55 1    
   106   54  120 1    
   107   55   56 1    
   108   55   57 1    
   109   55  121 1    
   110   56  122 1    
   111   56  123 1    
   112   56  124 1    
   113   57   58 2    
   114   57   59 am   BACKBONE|DICT|INTERRES
   115   59   60 1    
   116   59  125 1    
   117   60   61 1    
   118   60   62 1    
   119   60  126 1    
   120   61  127 1    
   121   61  128 1    
   122   61  129 1    
   123   62   63 2    
   124   62   64 am   BACKBONE|DICT|INTERRES
   125   64   65 1    
   126   64  130 1    
   127   65   66 1    
   128   65   69 1    
   129   65  131 1    
   130   66   67 am   BACKBONE|DICT|INTERRES
   131   66   68 2    
   132   67  132 1    
   133   67  133 1    
   134   69   70 1    
   135   69  134 1    
   136   69  135 1    
   137   70   71 1    
   138   71  136 1    
   139   71  137 1    
@<TRIPOS>SUBSTRUCTURE
     1 UNK         1 GROUP             0       ****    0 ROOT    
