@<TRIPOS>MOLECULE
3R136
137   139    1
SMALL
USER_CHARGES


@<TRIPOS>ATOM
      1 CA         27.5179   19.0869    1.9586 C.3       0 UNK        -0.1979 
      2 C          28.5459   19.5951    0.9587 C.2       0 UNK         0.4864 
      3 O          28.8364   18.9090   -0.0222 O.2       0 UNK        -0.5359 
      4 N          29.0979   20.7915    1.2019 N.am      1 UNK        -0.4318 
      5 CA         30.0938   21.4510    0.3457 C.3       1 UNK         0.0824 
      6 C6         30.7584   22.6550    1.0575 C.3       12 UNK        -0.0944 
      7 S7         31.6974   22.1724    2.5456 S.3       12 UNK        -0.2672 
      8 C8         30.6077   22.7441    3.8990 C.3       12 UNK         0.0333 
      9 C9         30.3497   24.2524    3.9650 C.ar      12 UNK        -0.0807 
     10 C10        31.2013   25.1934    3.3708 C.ar      12 UNK        -0.0894 
     11 C11        30.9382   26.5640    3.4602 C.ar      12 UNK        -0.0804 
     12 C12        29.8092   26.9948    4.1683 C.ar      12 UNK        -0.0824 
     13 C13        28.9606   26.0721    4.7861 C.ar      12 UNK        -0.0762 
     14 C14        29.2331   24.7062    4.6737 C.ar      12 UNK        -0.0782 
     15 C15        27.7698   26.5444    5.6092 C.3       12 UNK         0.0230 
     16 S16        26.2414   26.6325    4.6237 S.3       12 UNK        -0.2608 
     17 C17        26.4934   28.1729    3.6800 C.3       12 UNK        -0.0989 
     18 CA         26.6612   27.9070    2.1644 C.3       5 UNK         0.0716 
     19 N          25.4347   27.3602    1.5781 N.am      5 UNK        -0.4135 
     20 C          25.3364   26.8409    0.3501 C.2       4 UNK         0.5031 
     21 O          26.2869   26.7139   -0.4269 O.2       4 UNK        -0.5229 
     22 CA         23.9360   26.4002   -0.0904 C.3       4 UNK         0.0329 
     23 CB         23.1281   27.5870   -0.6456 C.3       4 UNK        -0.2001 
     24 N          24.0825   25.3748   -1.1170 N.am      4 UNK        -0.4303 
     25 C          23.2202   24.3830   -1.3655 C.2       3 UNK         0.5044 
     26 O          22.1302   24.2681   -0.8030 O.2       3 UNK        -0.5152 
     27 CA         23.6374   23.3309   -2.4137 C.3       3 UNK         0.0319 
     28 CB         22.9545   23.6183   -3.7611 C.3       3 UNK        -0.2001 
     29 N          25.0874   23.2265   -2.6234 N.am      3 UNK        -0.4354 
     30 C          25.9667   22.8100   -1.7017 C.2       2 UNK         0.4964 
     31 O          25.6484   22.4459   -0.5653 O.2       2 UNK        -0.5047 
     32 CA         27.4465   22.8174   -2.1126 C.3       2 UNK         0.0288 
     33 CB         27.9273   24.2328   -2.4984 C.3       2 UNK        -0.2113 
     34 N          28.2246   22.3109   -0.9877 N.am      2 UNK        -0.4145 
     35 C          29.5000   21.9092   -1.0032 C.2       1 UNK         0.5006 
     36 O          30.2053   21.8984   -2.0139 O.2       1 UNK        -0.5103 
     37 C          27.0717   29.2069    1.4459 C.2       5 UNK         0.5055 
     38 O          26.2158   30.0627    1.2070 O.2       5 UNK        -0.5220 
     39 N          28.3724   29.3497    1.1553 N.am      6 UNK        -0.4450 
     40 CA         28.9482   30.5627    0.5635 C.3       6 UNK         0.0367 
     41 CB         30.3324   30.2433   -0.0253 C.3       6 UNK        -0.1929 
     42 C          29.0465   31.7293    1.5634 C.2       6 UNK         0.5070 
     43 O          28.9825   32.8846    1.1436 O.2       6 UNK        -0.5237 
     44 N          29.2080   31.4012    2.8564 N.am      7 UNK        -0.4739 
     45 CA         29.3452   32.3135    4.0030 C.3       7 UNK         0.0276 
     46 CB         28.0294   33.0824    4.2478 C.3       7 UNK        -0.1927 
     47 C          30.5754   33.2430    3.9153 C.2       7 UNK         0.5013 
     48 O          30.5497   34.3551    4.4466 O.2       7 UNK        -0.5193 
     49 N          31.6315   32.7636    3.2492 N.am      8 UNK        -0.4253 
     50 CA         32.9233   33.4316    3.1123 C.3       8 UNK         0.0242 
     51 CB         33.5269   33.0298    1.7546 C.3       8 UNK        -0.2000 
     52 C          33.8609   33.0159    4.2546 C.2       8 UNK         0.4948 
     53 O          33.6111   32.0105    4.9225 O.2       8 UNK        -0.5275 
     54 N          34.9763   33.7435    4.4110 N.am      9 UNK        -0.4246 
     55 CA         36.0568   33.4149    5.3543 C.3       9 UNK         0.0261 
     56 CB         37.1276   34.5169    5.3133 C.3       9 UNK        -0.1959 
     57 C          36.6935   32.0324    5.1047 C.2       9 UNK         0.5033 
     58 O          37.1407   31.3867    6.0538 O.2       9 UNK        -0.5390 
     59 N          36.6648   31.5815    3.8417 N.am      10 UNK        -0.4215 
     60 CA         37.0602   30.2440    3.3955 C.3       10 UNK         0.0240 
     61 CB         36.9993   30.1935    1.8597 C.3       10 UNK        -0.1982 
     62 C          36.2241   29.0983    4.0002 C.2       10 UNK         0.4970 
     63 O          36.7111   27.9672    4.0261 O.2       10 UNK        -0.4916 
     64 N          35.0057   29.3916    4.4793 N.am      11 UNK        -0.4279 
     65 CA         34.1542   28.4355    5.2028 C.3       11 UNK         0.1003 
     66 C          34.6196   28.1562    6.6633 C.2       11 UNK         0.5709 
     67 N          35.5661   28.9030    7.2239 N.am      11 UNK        -0.7358 
     68 O          34.1176   27.2326    7.2993 O.2       11 UNK        -0.4999 
     69 C69        32.6533   28.8334    5.1701 C.3       12 UNK        -0.0954 
     70 S70        32.0011   29.2010    3.5038 S.3       12 UNK        -0.2268 
     71 C71        31.8866   27.5381    2.7597 C.3       12 UNK         0.0203 
     72 H72        26.5556   18.9455    1.4671 H         1 UNK         0.0888 
     73 H73        27.8355   18.1289    2.3693 H         1 UNK         0.0888 
     74 H74        27.3763   19.7804    2.7874 H         1 UNK         0.0888 
     75 H75        28.8297   21.2996    2.0313 H         1 UNK         0.3017 
     76 H76        30.8713   20.7185    0.1173 H         1 UNK         0.0873 
     77 H77        31.4644   23.1496    0.3870 H         1 UNK         0.0745 
     78 H78        30.0130   23.4099    1.3145 H         1 UNK         0.0745 
     79 H79        31.0545   22.4353    4.8449 H         1 UNK         0.0705 
     80 H80        29.6588   22.2121    3.8224 H         1 UNK         0.0705 
     81 H81        32.0775   24.8646    2.8303 H         1 UNK         0.1334 
     82 H82        29.5975   28.0495    4.2589 H         1 UNK         0.1417 
     83 H83        28.5755   23.9930    5.1526 H         1 UNK         0.1562 
     84 H84        27.9766   27.5139    6.0652 H         1 UNK         0.0748 
     85 H85        27.6055   25.8563    6.4399 H         1 UNK         0.0748 
     86 H86        27.3554   28.7061    4.0828 H         1 UNK         0.0940 
     87 H87        25.6384   28.8277    3.8613 H         1 UNK         0.0940 
     88 H88        27.4552   27.1691    2.0258 H         1 UNK         0.0703 
     89 H89        24.6024   27.4430    2.1426 H         1 UNK         0.3081 
     90 H90        23.4203   25.9757    0.7739 H         1 UNK         0.0719 
     91 H91        23.6149   28.0322   -1.5142 H         1 UNK         0.0809 
     92 H92        22.1257   27.2798   -0.9445 H         1 UNK         0.0809 
     93 H93        23.0160   28.3715    0.1039 H         1 UNK         0.0809 
     94 H94        24.9813   25.3816   -1.5828 H         1 UNK         0.2990 
     95 H95        23.2850   22.3620   -2.0536 H         1 UNK         0.0690 
     96 H96        23.1627   22.8332   -4.4883 H         1 UNK         0.0788 
     97 H97        23.2828   24.5679   -4.1858 H         1 UNK         0.0788 
     98 H98        21.8708   23.6706   -3.6462 H         1 UNK         0.0788 
     99 H99        25.4310   23.5046   -3.5317 H         1 UNK         0.2993 
    100 H100       27.5668   22.1394   -2.9601 H         1 UNK         0.0949 
    101 H101       27.8470   24.9241   -1.6591 H         1 UNK         0.0767 
    102 H102       28.9684   24.2267   -2.8208 H         1 UNK         0.0767 
    103 H103       27.3466   24.6475   -3.3227 H         1 UNK         0.0767 
    104 H104       27.6867   22.2287   -0.1329 H         1 UNK         0.3013 
    105 H105       29.0086   28.5911    1.3542 H         1 UNK         0.3121 
    106 H106       28.3004   30.8854   -0.2549 H         1 UNK         0.0774 
    107 H107       31.0388   29.9241    0.7404 H         1 UNK         0.0815 
    108 H108       30.7590   31.1221   -0.5109 H         1 UNK         0.0815 
    109 H109       30.2727   29.4570   -0.7780 H         1 UNK         0.0815 
    110 H110       29.2770   30.4185    3.0753 H         1 UNK         0.2987 
    111 H111       29.5205   31.6803    4.8744 H         1 UNK         0.0949 
    112 H112       27.1809   32.4025    4.3243 H         1 UNK         0.0806 
    113 H113       28.0733   33.6492    5.1786 H         1 UNK         0.0806 
    114 H114       27.8203   33.7911    3.4459 H         1 UNK         0.0806 
    115 H115       31.5847   31.8101    2.9204 H         1 UNK         0.3010 
    116 H116       32.7876   34.5150    3.1402 H         1 UNK         0.0829 
    117 H117       34.4716   33.5429    1.5709 H         1 UNK         0.0813 
    118 H118       33.7192   31.9571    1.6984 H         1 UNK         0.0813 
    119 H119       32.8578   33.2901    0.9340 H         1 UNK         0.0813 
    120 H120       35.1149   34.5571    3.8280 H         1 UNK         0.3038 
    121 H121       35.6232   33.3947    6.3564 H         1 UNK         0.0769 
    122 H122       37.5811   34.6051    4.3252 H         1 UNK         0.0811 
    123 H123       37.9300   34.3067    6.0221 H         1 UNK         0.0811 
    124 H124       36.7095   35.4877    5.5802 H         1 UNK         0.0811 
    125 H125       36.2844   32.1948    3.1368 H         1 UNK         0.3204 
    126 H126       38.0953   30.0869    3.7056 H         1 UNK         0.0748 
    127 H127       37.3225   29.2200    1.4877 H         1 UNK         0.0771 
    128 H128       35.9870   30.3630    1.4899 H         1 UNK         0.0771 
    129 H129       37.6527   30.9415    1.4102 H         1 UNK         0.0771 
    130 H130       34.6611   30.3453    4.4561 H         1 UNK         0.2980 
    131 H131       34.2361   27.4773    4.6874 H         1 UNK         0.0545 
    132 H132       35.9964   29.6680    6.7195 H         1 UNK         0.3459 
    133 H133       35.8547   28.7009    8.1677 H         1 UNK         0.3459 
    134 H134       32.4890   29.7204    5.7841 H         1 UNK         0.0616 
    135 H135       32.0429   28.0476    5.6173 H         1 UNK         0.0616 
    136 H136       31.5591   27.6475    1.7255 H         1 UNK         0.0634 
    137 H137       32.8921   27.1173    2.7162 H         1 UNK         0.0634 
@<TRIPOS>BOND
     1    1    2 1    
     2    1   72 1    
     3    1   73 1    
     4    1   74 1    
     5    2    3 2    
     6    2    4 am   BACKBONE|DICT|INTERRES
     7    4    5 1    
     8    4   75 1    
     9    5    6 1    
    10    5   35 1    
    11    5   76 1    
    12    6    7 1    
    13    6   77 1    
    14    6   78 1    
    15    7    8 1    
    16    8    9 1    
    17    8   79 1    
    18    8   80 1    
    19    9   10 ar   
    20    9   14 ar   
    21   10   11 ar   
    22   10   81 1    
    23   11   12 ar   
    24   11   71 1    
    25   12   13 ar   
    26   12   82 1    
    27   13   14 ar   
    28   13   15 1    
    29   14   83 1    
    30   15   16 1    
    31   15   84 1    
    32   15   85 1    
    33   16   17 1    
    34   17   18 1    
    35   17   86 1    
    36   17   87 1    
    37   18   19 1    
    38   18   37 1    
    39   18   88 1    
    40   19   20 am   BACKBONE|DICT|INTERRES
    41   19   89 1    
    42   20   21 2    
    43   20   22 1    
    44   22   23 1    
    45   22   24 1    
    46   22   90 1    
    47   23   91 1    
    48   23   92 1    
    49   23   93 1    
    50   24   25 am   BACKBONE|DICT|INTERRES
    51   24   94 1    
    52   25   26 2    
    53   25   27 1    
    54   27   28 1    
    55   27   29 1    
    56   27   95 1    
    57   28   96 1    
    58   28   97 1    
    59   28   98 1    
    60   29   30 am   BACKBONE|DICT|INTERRES
    61   29   99 1    
    62   30   31 2    
    63   30   32 1    
    64   32   33 1    
    65   32   34 1    
    66   32  100 1    
    67   33  101 1    
    68   33  102 1    
    69   33  103 1    
    70   34   35 am   BACKBONE|DICT|INTERRES
    71   34  104 1    
    72   35   36 2    
    73   37   38 2    
    74   37   39 am   BACKBONE|DICT|INTERRES
    75   39   40 1    
    76   39  105 1    
    77   40   41 1    
    78   40   42 1    
    79   40  106 1    
    80   41  107 1    
    81   41  108 1    
    82   41  109 1    
    83   42   43 2    
    84   42   44 am   BACKBONE|DICT|INTERRES
    85   44   45 1    
    86   44  110 1    
    87   45   46 1    
    88   45   47 1    
    89   45  111 1    
    90   46  112 1    
    91   46  113 1    
    92   46  114 1    
    93   47   48 2    
    94   47   49 am   BACKBONE|DICT|INTERRES
    95   49   50 1    
    96   49  115 1    
    97   50   51 1    
    98   50   52 1    
    99   50  116 1    
   100   51  117 1    
   101   51  118 1    
   102   51  119 1    
   103   52   53 2    
   104   52   54 am   BACKBONE|DICT|INTERRES
   105   54   55 1    
   106   54  120 1    
   107   55   56 1    
   108   55   57 1    
   109   55  121 1    
   110   56  122 1    
   111   56  123 1    
   112   56  124 1    
   113   57   58 2    
   114   57   59 am   BACKBONE|DICT|INTERRES
   115   59   60 1    
   116   59  125 1    
   117   60   61 1    
   118   60   62 1    
   119   60  126 1    
   120   61  127 1    
   121   61  128 1    
   122   61  129 1    
   123   62   63 2    
   124   62   64 am   BACKBONE|DICT|INTERRES
   125   64   65 1    
   126   64  130 1    
   127   65   66 1    
   128   65   69 1    
   129   65  131 1    
   130   66   67 am   BACKBONE|DICT|INTERRES
   131   66   68 2    
   132   67  132 1    
   133   67  133 1    
   134   69   70 1    
   135   69  134 1    
   136   69  135 1    
   137   70   71 1    
   138   71  136 1    
   139   71  137 1    
@<TRIPOS>SUBSTRUCTURE
     1 UNK         1 GROUP             0       ****    0 ROOT    
