@<TRIPOS>MOLECULE
3R136
137   139    1
SMALL
USER_CHARGES


@<TRIPOS>ATOM
      1 CA         33.7935   22.3225   -2.7264 C.3       0 UNK        -0.1979 
      2 C          32.5060   22.6720   -1.9940 C.2       0 UNK         0.4864 
      3 O          31.8641   21.7806   -1.4356 O.2       0 UNK        -0.5359 
      4 N          32.1350   23.9610   -1.9909 N.am      1 UNK        -0.4318 
      5 CA         30.9120   24.5153   -1.3942 C.3       1 UNK         0.0824 
      6 C6         30.8359   24.2816    0.1439 C.3       12 UNK        -0.0944 
      7 S7         29.9315   25.5992    1.0171 S.3       12 UNK        -0.2672 
      8 C8         29.9446   24.9313    2.7071 C.3       12 UNK         0.0333 
      9 C9         29.4044   25.9615    3.6825 C.ar      12 UNK        -0.0807 
     10 C10        30.2249   27.0098    4.1040 C.ar      12 UNK        -0.0894 
     11 C11        29.7297   28.0047    4.9489 C.ar      12 UNK        -0.0804 
     12 C12        28.4033   27.9369    5.3844 C.ar      12 UNK        -0.0824 
     13 C13        27.5744   26.8831    4.9834 C.ar      12 UNK        -0.0762 
     14 C14        28.0857   25.8904    4.1394 C.ar      12 UNK        -0.0782 
     15 C15        26.1262   26.8370    5.4612 C.3       12 UNK         0.0230 
     16 S16        24.9141   26.5829    4.1189 S.3       12 UNK        -0.2608 
     17 C17        25.3796   27.8653    2.9030 C.3       12 UNK        -0.0989 
     18 CA         25.8022   27.2309    1.5462 C.3       5 UNK         0.0716 
     19 N          24.7463   26.4524    0.8836 N.am      5 UNK        -0.4135 
     20 C          23.4952   26.8364    0.5785 C.2       4 UNK         0.5031 
     21 O          23.0092   27.9246    0.8914 O.2       4 UNK        -0.5229 
     22 CA         22.6176   25.8569   -0.2308 C.3       4 UNK         0.0329 
     23 CB         22.2218   26.4757   -1.5832 C.3       4 UNK        -0.2001 
     24 N          23.2557   24.5640   -0.4831 N.am      4 UNK        -0.4303 
     25 C          23.3504   23.5568    0.3956 C.2       3 UNK         0.5044 
     26 O          22.8208   23.5623    1.5066 O.2       3 UNK        -0.5152 
     27 CA         24.2112   22.3506   -0.0301 C.3       3 UNK         0.0319 
     28 CB         23.3217   21.2173   -0.5664 C.3       3 UNK        -0.2001 
     29 N          25.2359   22.6786   -1.0321 N.am      3 UNK        -0.4354 
     30 C          26.2618   23.5158   -0.8262 C.2       2 UNK         0.4964 
     31 O          26.4630   24.1072    0.2378 O.2       2 UNK        -0.5047 
     32 CA         27.1700   23.7963   -2.0254 C.3       2 UNK         0.0288 
     33 CB         26.5825   24.9218   -2.8980 C.3       2 UNK        -0.2113 
     34 N          28.4781   24.1931   -1.5196 N.am      2 UNK        -0.4145 
     35 C          29.6423   24.0732   -2.1642 C.2       1 UNK         0.5006 
     36 O          29.7320   23.6629   -3.3256 O.2       1 UNK        -0.5103 
     37 C          26.4395   28.2599    0.5897 C.2       5 UNK         0.5055 
     38 O          25.8601   28.6184   -0.4392 O.2       5 UNK        -0.5220 
     39 N          27.6467   28.7099    0.9433 N.am      6 UNK        -0.4450 
     40 CA         28.4307   29.7011    0.2149 C.3       6 UNK         0.0367 
     41 CB         29.2399   29.0112   -0.8993 C.3       6 UNK        -0.1929 
     42 C          29.3580   30.3976    1.2138 C.2       6 UNK         0.5070 
     43 O          29.6360   29.8419    2.2783 O.2       6 UNK        -0.5237 
     44 N          29.8580   31.5840    0.8513 N.am      7 UNK        -0.4739 
     45 CA         30.8018   32.3744    1.6502 C.3       7 UNK         0.0276 
     46 CB         30.6944   33.8525    1.2295 C.3       7 UNK        -0.1927 
     47 C          32.2415   31.8285    1.5465 C.2       7 UNK         0.5013 
     48 O          33.1459   32.5445    1.1109 O.2       7 UNK        -0.5193 
     49 N          32.4195   30.5540    1.9139 N.am      8 UNK        -0.4253 
     50 CA         33.6997   29.8483    1.9099 C.3       8 UNK         0.0242 
     51 CB         33.4440   28.3394    2.0561 C.3       8 UNK        -0.2000 
     52 C          34.6160   30.3400    3.0403 C.2       8 UNK         0.4948 
     53 O          34.1306   30.6703    4.1260 O.2       8 UNK        -0.5275 
     54 N          35.9321   30.3066    2.7861 N.am      9 UNK        -0.4246 
     55 CA         36.9917   30.7234    3.7150 C.3       9 UNK         0.0261 
     56 CB         38.3538   30.6242    3.0093 C.3       9 UNK        -0.1959 
     57 C          37.0194   29.9485    5.0457 C.2       9 UNK         0.5033 
     58 O          37.4935   30.4899    6.0452 O.2       9 UNK        -0.5390 
     59 N          36.4725   28.7239    5.0515 N.am      10 UNK        -0.4215 
     60 CA         36.2661   27.8849    6.2355 C.3       10 UNK         0.0240 
     61 CB         35.6703   26.5368    5.7973 C.3       10 UNK        -0.1982 
     62 C          35.3812   28.5326    7.3189 C.2       10 UNK         0.4970 
     63 O          35.5573   28.2137    8.4955 O.2       10 UNK        -0.4916 
     64 N          34.4718   29.4306    6.9155 N.am      11 UNK        -0.4279 
     65 CA         33.6457   30.2431    7.8210 C.3       11 UNK         0.1003 
     66 C          34.3263   31.5736    8.2612 C.2       11 UNK         0.5709 
     67 N          35.5491   31.8833    7.8432 N.am      11 UNK        -0.7358 
     68 O          33.7382   32.3400    9.0209 O.2       11 UNK        -0.4999 
     69 C69        32.2281   30.4847    7.2393 C.3       12 UNK        -0.0954 
     70 S70        31.2998   28.9295    7.0207 S.3       12 UNK        -0.2268 
     71 C71        30.6146   29.1723    5.3573 C.3       12 UNK         0.0203 
     72 H72        34.2674   23.2018   -3.1626 H         1 UNK         0.0888 
     73 H73        33.5873   21.6153   -3.5294 H         1 UNK         0.0888 
     74 H74        34.5027   21.8614   -2.0393 H         1 UNK         0.0888 
     75 H75        32.6995   24.6287   -2.4975 H         1 UNK         0.3017 
     76 H76        30.9905   25.5902   -1.5657 H         1 UNK         0.0873 
     77 H77        31.8424   24.2649    0.5656 H         1 UNK         0.0745 
     78 H78        30.3999   23.3086    0.3802 H         1 UNK         0.0745 
     79 H79        29.3520   24.0157    2.7413 H         1 UNK         0.0705 
     80 H80        30.9632   24.6578    2.9871 H         1 UNK         0.0705 
     81 H81        31.2424   27.0620    3.7484 H         1 UNK         0.1334 
     82 H82        28.0185   28.7122    6.0330 H         1 UNK         0.1417 
     83 H83        27.4469   25.0796    3.8155 H         1 UNK         0.1562 
     84 H84        25.8647   27.7576    5.9856 H         1 UNK         0.0748 
     85 H85        26.0207   26.0301    6.1874 H         1 UNK         0.0748 
     86 H86        26.1862   28.4735    3.3145 H         1 UNK         0.0940 
     87 H87        24.5438   28.5543    2.7809 H         1 UNK         0.0940 
     88 H88        26.5896   26.5042    1.7527 H         1 UNK         0.0703 
     89 H89        25.0526   25.5376    0.5740 H         1 UNK         0.3081 
     90 H90        21.7061   25.6886    0.3467 H         1 UNK         0.0719 
     91 H91        21.6879   27.4166   -1.4425 H         1 UNK         0.0809 
     92 H92        23.0959   26.6878   -2.2004 H         1 UNK         0.0809 
     93 H93        21.5627   25.8145   -2.1463 H         1 UNK         0.0809 
     94 H94        23.7127   24.4547   -1.3763 H         1 UNK         0.2990 
     95 H95        24.7248   21.9889    0.8634 H         1 UNK         0.0690 
     96 H96        23.9062   20.3243   -0.7886 H         1 UNK         0.0788 
     97 H97        22.7959   21.5114   -1.4758 H         1 UNK         0.0788 
     98 H98        22.5670   20.9327    0.1684 H         1 UNK         0.0788 
     99 H99        25.1352   22.2426   -1.9383 H         1 UNK         0.2993 
    100 H100       27.2717   22.8809   -2.6130 H         1 UNK         0.0949 
    101 H101       26.4629   25.8481   -2.3331 H         1 UNK         0.0767 
    102 H102       27.2225   25.1350   -3.7544 H         1 UNK         0.0767 
    103 H103       25.6027   24.6470   -3.2904 H         1 UNK         0.0767 
    104 H104       28.4760   24.5206   -0.5587 H         1 UNK         0.3013 
    105 H105       28.0766   28.4146    1.8137 H         1 UNK         0.3121 
    106 H106       27.7630   30.4493   -0.2178 H         1 UNK         0.0774 
    107 H107       29.9423   28.2829   -0.4921 H         1 UNK         0.0815 
    108 H108       28.5884   28.4900   -1.6010 H         1 UNK         0.0815 
    109 H109       29.8181   29.7366   -1.4726 H         1 UNK         0.0815 
    110 H110       29.6158   31.9575   -0.0558 H         1 UNK         0.2987 
    111 H111       30.5138   32.3095    2.7023 H         1 UNK         0.0949 
    112 H112       29.6819   34.2320    1.3681 H         1 UNK         0.0806 
    113 H113       31.3568   34.4784    1.8292 H         1 UNK         0.0806 
    114 H114       30.9676   33.9967    0.1835 H         1 UNK         0.0806 
    115 H115       31.6059   30.0492    2.2523 H         1 UNK         0.3010 
    116 H116       34.1825   30.0327    0.9476 H         1 UNK         0.0829 
    117 H117       34.3587   27.7702    1.8868 H         1 UNK         0.0813 
    118 H118       32.7037   27.9830    1.3388 H         1 UNK         0.0813 
    119 H119       33.0918   28.0917    3.0569 H         1 UNK         0.0813 
    120 H120       36.2371   30.0027    1.8720 H         1 UNK         0.3038 
    121 H121       36.8102   31.7716    3.9620 H         1 UNK         0.0769 
    122 H122       38.3885   31.2543    2.1203 H         1 UNK         0.0811 
    123 H123       38.5793   29.6008    2.7068 H         1 UNK         0.0811 
    124 H124       39.1593   30.9539    3.6673 H         1 UNK         0.0811 
    125 H125       36.1177   28.3666    4.1772 H         1 UNK         0.3204 
    126 H126       37.2457   27.7016    6.6818 H         1 UNK         0.0748 
    127 H127       35.5301   25.8753    6.6536 H         1 UNK         0.0771 
    128 H128       34.6971   26.6615    5.3200 H         1 UNK         0.0771 
    129 H129       36.3263   26.0200    5.0964 H         1 UNK         0.0771 
    130 H130       34.4043   29.6705    5.9324 H         1 UNK         0.2980 
    131 H131       33.5079   29.6859    8.7494 H         1 UNK         0.0545 
    132 H132       36.0766   31.2655    7.2369 H         1 UNK         0.3459 
    133 H133       35.9638   32.7474    8.1531 H         1 UNK         0.3459 
    134 H134       32.2971   31.0169    6.2887 H         1 UNK         0.0616 
    135 H135       31.6370   31.1185    7.9027 H         1 UNK         0.0616 
    136 H136       31.4321   29.3006    4.6458 H         1 UNK         0.0634 
    137 H137       30.0362   30.0972    5.3321 H         1 UNK         0.0634 
@<TRIPOS>BOND
     1    1    2 1    
     2    1   72 1    
     3    1   73 1    
     4    1   74 1    
     5    2    3 2    
     6    2    4 am   BACKBONE|DICT|INTERRES
     7    4    5 1    
     8    4   75 1    
     9    5    6 1    
    10    5   35 1    
    11    5   76 1    
    12    6    7 1    
    13    6   77 1    
    14    6   78 1    
    15    7    8 1    
    16    8    9 1    
    17    8   79 1    
    18    8   80 1    
    19    9   10 ar   
    20    9   14 ar   
    21   10   11 ar   
    22   10   81 1    
    23   11   12 ar   
    24   11   71 1    
    25   12   13 ar   
    26   12   82 1    
    27   13   14 ar   
    28   13   15 1    
    29   14   83 1    
    30   15   16 1    
    31   15   84 1    
    32   15   85 1    
    33   16   17 1    
    34   17   18 1    
    35   17   86 1    
    36   17   87 1    
    37   18   19 1    
    38   18   37 1    
    39   18   88 1    
    40   19   20 am   BACKBONE|DICT|INTERRES
    41   19   89 1    
    42   20   21 2    
    43   20   22 1    
    44   22   23 1    
    45   22   24 1    
    46   22   90 1    
    47   23   91 1    
    48   23   92 1    
    49   23   93 1    
    50   24   25 am   BACKBONE|DICT|INTERRES
    51   24   94 1    
    52   25   26 2    
    53   25   27 1    
    54   27   28 1    
    55   27   29 1    
    56   27   95 1    
    57   28   96 1    
    58   28   97 1    
    59   28   98 1    
    60   29   30 am   BACKBONE|DICT|INTERRES
    61   29   99 1    
    62   30   31 2    
    63   30   32 1    
    64   32   33 1    
    65   32   34 1    
    66   32  100 1    
    67   33  101 1    
    68   33  102 1    
    69   33  103 1    
    70   34   35 am   BACKBONE|DICT|INTERRES
    71   34  104 1    
    72   35   36 2    
    73   37   38 2    
    74   37   39 am   BACKBONE|DICT|INTERRES
    75   39   40 1    
    76   39  105 1    
    77   40   41 1    
    78   40   42 1    
    79   40  106 1    
    80   41  107 1    
    81   41  108 1    
    82   41  109 1    
    83   42   43 2    
    84   42   44 am   BACKBONE|DICT|INTERRES
    85   44   45 1    
    86   44  110 1    
    87   45   46 1    
    88   45   47 1    
    89   45  111 1    
    90   46  112 1    
    91   46  113 1    
    92   46  114 1    
    93   47   48 2    
    94   47   49 am   BACKBONE|DICT|INTERRES
    95   49   50 1    
    96   49  115 1    
    97   50   51 1    
    98   50   52 1    
    99   50  116 1    
   100   51  117 1    
   101   51  118 1    
   102   51  119 1    
   103   52   53 2    
   104   52   54 am   BACKBONE|DICT|INTERRES
   105   54   55 1    
   106   54  120 1    
   107   55   56 1    
   108   55   57 1    
   109   55  121 1    
   110   56  122 1    
   111   56  123 1    
   112   56  124 1    
   113   57   58 2    
   114   57   59 am   BACKBONE|DICT|INTERRES
   115   59   60 1    
   116   59  125 1    
   117   60   61 1    
   118   60   62 1    
   119   60  126 1    
   120   61  127 1    
   121   61  128 1    
   122   61  129 1    
   123   62   63 2    
   124   62   64 am   BACKBONE|DICT|INTERRES
   125   64   65 1    
   126   64  130 1    
   127   65   66 1    
   128   65   69 1    
   129   65  131 1    
   130   66   67 am   BACKBONE|DICT|INTERRES
   131   66   68 2    
   132   67  132 1    
   133   67  133 1    
   134   69   70 1    
   135   69  134 1    
   136   69  135 1    
   137   70   71 1    
   138   71  136 1    
   139   71  137 1    
@<TRIPOS>SUBSTRUCTURE
     1 UNK         1 GROUP             0       ****    0 ROOT    
