@<TRIPOS>MOLECULE
3R136
137   139    1
SMALL
USER_CHARGES


@<TRIPOS>ATOM
      1 CA         31.4501   21.7802   -3.4226 C.3       0 UNK        -0.1979 
      2 C          30.3697   22.4467   -2.5838 C.2       0 UNK         0.4864 
      3 O          29.9962   23.5862   -2.8641 O.2       0 UNK        -0.5359 
      4 N          29.8715   21.7471   -1.5560 N.am      1 UNK        -0.4318 
      5 CA         28.8160   22.2221   -0.6603 C.3       1 UNK         0.0824 
      6 C6         28.7197   21.3414    0.6145 C.3       12 UNK        -0.0944 
      7 S7         27.8908   22.1941    2.0023 S.3       12 UNK        -0.2672 
      8 C8         29.0340   21.9197    3.3945 C.3       12 UNK         0.0333 
      9 C9         30.1025   23.0003    3.4782 C.ar      12 UNK        -0.0807 
     10 C10        30.0054   24.0249    4.4271 C.ar      12 UNK        -0.0894 
     11 C11        30.9936   25.0121    4.5076 C.ar      12 UNK        -0.0804 
     12 C12        32.0776   24.9766    3.6262 C.ar      12 UNK        -0.0824 
     13 C13        32.1740   23.9671    2.6669 C.ar      12 UNK        -0.0762 
     14 C14        31.1980   22.9714    2.6127 C.ar      12 UNK        -0.0782 
     15 C15        33.3136   23.9560    1.6645 C.3       12 UNK         0.0230 
     16 S16        32.7096   24.3589   -0.0037 S.3       12 UNK        -0.2608 
     17 C17        32.2699   26.1196    0.1683 C.3       12 UNK        -0.0989 
     18 CA         30.7648   26.3844   -0.0971 C.3       5 UNK         0.0716 
     19 N          29.8780   26.0030    1.0159 N.am      5 UNK        -0.4135 
     20 C          28.5489   25.8887    0.8713 C.2       4 UNK         0.5031 
     21 O          27.9887   25.7996   -0.2274 O.2       4 UNK        -0.5229 
     22 CA         27.6803   25.9284    2.1392 C.3       4 UNK         0.0329 
     23 CB         27.6463   27.3479    2.7372 C.3       4 UNK        -0.2001 
     24 N          26.3318   25.5545    1.7368 N.am      4 UNK        -0.4303 
     25 C          25.3056   25.1438    2.4892 C.2       3 UNK         0.5044 
     26 O          25.3527   25.0187    3.7130 O.2       3 UNK        -0.5152 
     27 CA         23.9927   24.8331    1.7350 C.3       3 UNK         0.0319 
     28 CB         22.9781   25.9718    1.9298 C.3       3 UNK        -0.2001 
     29 N          24.2278   24.6410    0.2973 N.am      3 UNK        -0.4354 
     30 C          24.6784   23.4966   -0.2340 C.2       2 UNK         0.4964 
     31 O          24.6437   22.4151    0.3536 O.2       2 UNK        -0.5047 
     32 CA         25.3653   23.5823   -1.6086 C.3       2 UNK         0.0288 
     33 CB         25.1159   24.9040   -2.3648 C.3       2 UNK        -0.2113 
     34 N          26.7997   23.4358   -1.3612 N.am      2 UNK        -0.4145 
     35 C          27.4581   22.2711   -1.3924 C.2       1 UNK         0.5006 
     36 O          27.0208   21.2450   -1.9217 O.2       1 UNK        -0.5103 
     37 C          30.5341   27.8701   -0.4409 C.2       5 UNK         0.5055 
     38 O          30.2733   28.1984   -1.5990 O.2       5 UNK        -0.5220 
     39 N          30.5929   28.7268    0.5869 N.am      6 UNK        -0.4450 
     40 CA         30.2485   30.1413    0.5426 C.3       6 UNK         0.0367 
     41 CB         31.3233   30.9623   -0.1955 C.3       6 UNK        -0.1929 
     42 C          30.0877   30.5888    1.9962 C.2       6 UNK         0.5070 
     43 O          31.0762   30.6025    2.7371 O.2       6 UNK        -0.5237 
     44 N          28.8480   30.9007    2.3931 N.am      7 UNK        -0.4739 
     45 CA         28.4883   31.3244    3.7488 C.3       7 UNK         0.0276 
     46 CB         26.9687   31.5357    3.8331 C.3       7 UNK        -0.1927 
     47 C          29.2434   32.5991    4.1585 C.2       7 UNK         0.5013 
     48 O          29.2641   33.5623    3.3882 O.2       7 UNK        -0.5193 
     49 N          29.8885   32.5546    5.3319 N.am      8 UNK        -0.4253 
     50 CA         30.8016   33.5491    5.9161 C.3       8 UNK         0.0242 
     51 CB         30.0940   34.8947    6.1694 C.3       8 UNK        -0.2000 
     52 C          32.1171   33.7516    5.1371 C.2       8 UNK         0.4948 
     53 O          33.1737   33.8134    5.7649 O.2       8 UNK        -0.5275 
     54 N          32.0457   33.8410    3.8031 N.am      9 UNK        -0.4246 
     55 CA         33.1807   34.0542    2.9022 C.3       9 UNK         0.0261 
     56 CB         32.6658   34.3226    1.4805 C.3       9 UNK        -0.1959 
     57 C          34.2007   32.9028    2.9144 C.2       9 UNK         0.5033 
     58 O          35.4018   33.1725    2.9686 O.2       9 UNK        -0.5390 
     59 N          33.7128   31.6554    2.8860 N.am      10 UNK        -0.4215 
     60 CA         34.5240   30.4477    3.0576 C.3       10 UNK         0.0240 
     61 CB         34.1965   29.4263    1.9539 C.3       10 UNK        -0.1982 
     62 C          34.2871   29.8341    4.4432 C.2       10 UNK         0.4970 
     63 O          35.2470   29.3892    5.0733 O.2       10 UNK        -0.4916 
     64 N          33.0239   29.8151    4.8902 N.am      11 UNK        -0.4279 
     65 CA         32.6038   29.2050    6.1631 C.3       11 UNK         0.1003 
     66 C          32.9843   29.9989    7.4463 C.2       11 UNK         0.5709 
     67 N          33.4594   31.2345    7.3613 N.am      11 UNK        -0.7358 
     68 O          32.8537   29.4736    8.5492 O.2       11 UNK        -0.4999 
     69 C69        31.0968   28.8400    6.1553 C.3       12 UNK        -0.0954 
     70 S70        30.6672   27.7370    4.7723 S.3       12 UNK        -0.2268 
     71 C71        30.9112   26.1137    5.5512 C.3       12 UNK         0.0203 
     72 H72        32.3688   22.3647   -3.3799 H         1 UNK         0.0888 
     73 H73        31.6736   20.7719   -3.0744 H         1 UNK         0.0888 
     74 H74        31.1327   21.7175   -4.4631 H         1 UNK         0.0888 
     75 H75        30.1896   20.8016   -1.3994 H         1 UNK         0.3017 
     76 H76        29.0972   23.2325   -0.3567 H         1 UNK         0.0873 
     77 H77        28.1891   20.4080    0.4146 H         1 UNK         0.0745 
     78 H78        29.7140   21.0326    0.9321 H         1 UNK         0.0745 
     79 H79        28.4504   21.9021    4.3162 H         1 UNK         0.0705 
     80 H80        29.4964   20.9348    3.3148 H         1 UNK         0.0705 
     81 H81        29.1624   24.0517    5.1043 H         1 UNK         0.1334 
     82 H82        32.8373   25.7449    3.6823 H         1 UNK         0.1417 
     83 H83        31.2913   22.1888    1.8752 H         1 UNK         0.1562 
     84 H84        33.7715   22.9659    1.6478 H         1 UNK         0.0748 
     85 H85        34.1014   24.6552    1.9496 H         1 UNK         0.0748 
     86 H86        32.8876   26.6544   -0.5568 H         1 UNK         0.0940 
     87 H87        32.5709   26.4995    1.1456 H         1 UNK         0.0940 
     88 H88        30.4752   25.8066   -0.9786 H         1 UNK         0.0703 
     89 H89        30.2807   25.9840    1.9422 H         1 UNK         0.3081 
     90 H90        28.0645   25.2106    2.8637 H         1 UNK         0.0719 
     91 H91        27.1594   27.3551    3.7125 H         1 UNK         0.0809 
     92 H92        27.1101   28.0438    2.0908 H         1 UNK         0.0809 
     93 H93        28.6462   27.7530    2.8708 H         1 UNK         0.0809 
     94 H94        26.2117   25.5939    0.7334 H         1 UNK         0.2990 
     95 H95        23.5704   23.9209    2.1622 H         1 UNK         0.0690 
     96 H96        22.0327   25.7492    1.4345 H         1 UNK         0.0788 
     97 H97        23.3502   26.9184    1.5359 H         1 UNK         0.0788 
     98 H98        22.7607   26.1224    2.9882 H         1 UNK         0.0788 
     99 H99        24.2371   25.4729   -0.2760 H         1 UNK         0.2993 
    100 H100       24.9890   22.7585   -2.2191 H         1 UNK         0.0949 
    101 H101       25.5758   24.8728   -3.3528 H         1 UNK         0.0767 
    102 H102       24.0496   25.0780   -2.5170 H         1 UNK         0.0767 
    103 H103       25.5307   25.7685   -1.8445 H         1 UNK         0.0767 
    104 H104       27.2669   24.2434   -0.9544 H         1 UNK         0.3013 
    105 H105       30.8154   28.3833    1.5112 H         1 UNK         0.3121 
    106 H106       29.2969   30.2527    0.0183 H         1 UNK         0.0774 
    107 H107       31.0116   32.0024   -0.2861 H         1 UNK         0.0815 
    108 H108       32.2814   30.9466    0.3229 H         1 UNK         0.0815 
    109 H109       31.4886   30.5947   -1.2079 H         1 UNK         0.0815 
    110 H110       28.0995   30.8829    1.7159 H         1 UNK         0.2987 
    111 H111       28.7604   30.5122    4.4262 H         1 UNK         0.0949 
    112 H112       26.6318   32.3178    3.1511 H         1 UNK         0.0806 
    113 H113       26.4262   30.6213    3.5919 H         1 UNK         0.0806 
    114 H114       26.6711   31.8315    4.8400 H         1 UNK         0.0806 
    115 H115       29.7970   31.7078    5.8743 H         1 UNK         0.3010 
    116 H116       31.0826   33.1455    6.8905 H         1 UNK         0.0829 
    117 H117       29.2010   34.7641    6.7806 H         1 UNK         0.0813 
    118 H118       30.7519   35.5840    6.7005 H         1 UNK         0.0813 
    119 H119       29.7968   35.3846    5.2418 H         1 UNK         0.0813 
    120 H120       31.1182   33.7879    3.3877 H         1 UNK         0.3038 
    121 H121       33.7019   34.9510    3.2439 H         1 UNK         0.0769 
    122 H122       32.0558   33.4986    1.1149 H         1 UNK         0.0811 
    123 H123       33.4921   34.4574    0.7811 H         1 UNK         0.0811 
    124 H124       32.0593   35.2277    1.4441 H         1 UNK         0.0811 
    125 H125       32.7062   31.5159    2.8322 H         1 UNK         0.3204 
    126 H126       35.5867   30.6871    2.9816 H         1 UNK         0.0748 
    127 H127       34.3960   29.8368    0.9642 H         1 UNK         0.0771 
    128 H128       34.8088   28.5298    2.0603 H         1 UNK         0.0771 
    129 H129       33.1541   29.1107    1.9837 H         1 UNK         0.0771 
    130 H130       32.2798   30.1412    4.2837 H         1 UNK         0.2980 
    131 H131       33.1508   28.2643    6.2503 H         1 UNK         0.0545 
    132 H132       33.7058   31.7195    8.2091 H         1 UNK         0.3459 
    133 H133       33.5682   31.7018    6.4734 H         1 UNK         0.3459 
    134 H134       30.8028   28.3581    7.0898 H         1 UNK         0.0616 
    135 H135       30.4890   29.7409    6.0735 H         1 UNK         0.0616 
    136 H136       30.0990   25.9294    6.2561 H         1 UNK         0.0634 
    137 H137       31.8350   26.1197    6.1313 H         1 UNK         0.0634 
@<TRIPOS>BOND
     1    1    2 1    
     2    1   72 1    
     3    1   73 1    
     4    1   74 1    
     5    2    3 2    
     6    2    4 am   BACKBONE|DICT|INTERRES
     7    4    5 1    
     8    4   75 1    
     9    5    6 1    
    10    5   35 1    
    11    5   76 1    
    12    6    7 1    
    13    6   77 1    
    14    6   78 1    
    15    7    8 1    
    16    8    9 1    
    17    8   79 1    
    18    8   80 1    
    19    9   10 ar   
    20    9   14 ar   
    21   10   11 ar   
    22   10   81 1    
    23   11   12 ar   
    24   11   71 1    
    25   12   13 ar   
    26   12   82 1    
    27   13   14 ar   
    28   13   15 1    
    29   14   83 1    
    30   15   16 1    
    31   15   84 1    
    32   15   85 1    
    33   16   17 1    
    34   17   18 1    
    35   17   86 1    
    36   17   87 1    
    37   18   19 1    
    38   18   37 1    
    39   18   88 1    
    40   19   20 am   BACKBONE|DICT|INTERRES
    41   19   89 1    
    42   20   21 2    
    43   20   22 1    
    44   22   23 1    
    45   22   24 1    
    46   22   90 1    
    47   23   91 1    
    48   23   92 1    
    49   23   93 1    
    50   24   25 am   BACKBONE|DICT|INTERRES
    51   24   94 1    
    52   25   26 2    
    53   25   27 1    
    54   27   28 1    
    55   27   29 1    
    56   27   95 1    
    57   28   96 1    
    58   28   97 1    
    59   28   98 1    
    60   29   30 am   BACKBONE|DICT|INTERRES
    61   29   99 1    
    62   30   31 2    
    63   30   32 1    
    64   32   33 1    
    65   32   34 1    
    66   32  100 1    
    67   33  101 1    
    68   33  102 1    
    69   33  103 1    
    70   34   35 am   BACKBONE|DICT|INTERRES
    71   34  104 1    
    72   35   36 2    
    73   37   38 2    
    74   37   39 am   BACKBONE|DICT|INTERRES
    75   39   40 1    
    76   39  105 1    
    77   40   41 1    
    78   40   42 1    
    79   40  106 1    
    80   41  107 1    
    81   41  108 1    
    82   41  109 1    
    83   42   43 2    
    84   42   44 am   BACKBONE|DICT|INTERRES
    85   44   45 1    
    86   44  110 1    
    87   45   46 1    
    88   45   47 1    
    89   45  111 1    
    90   46  112 1    
    91   46  113 1    
    92   46  114 1    
    93   47   48 2    
    94   47   49 am   BACKBONE|DICT|INTERRES
    95   49   50 1    
    96   49  115 1    
    97   50   51 1    
    98   50   52 1    
    99   50  116 1    
   100   51  117 1    
   101   51  118 1    
   102   51  119 1    
   103   52   53 2    
   104   52   54 am   BACKBONE|DICT|INTERRES
   105   54   55 1    
   106   54  120 1    
   107   55   56 1    
   108   55   57 1    
   109   55  121 1    
   110   56  122 1    
   111   56  123 1    
   112   56  124 1    
   113   57   58 2    
   114   57   59 am   BACKBONE|DICT|INTERRES
   115   59   60 1    
   116   59  125 1    
   117   60   61 1    
   118   60   62 1    
   119   60  126 1    
   120   61  127 1    
   121   61  128 1    
   122   61  129 1    
   123   62   63 2    
   124   62   64 am   BACKBONE|DICT|INTERRES
   125   64   65 1    
   126   64  130 1    
   127   65   66 1    
   128   65   69 1    
   129   65  131 1    
   130   66   67 am   BACKBONE|DICT|INTERRES
   131   66   68 2    
   132   67  132 1    
   133   67  133 1    
   134   69   70 1    
   135   69  134 1    
   136   69  135 1    
   137   70   71 1    
   138   71  136 1    
   139   71  137 1    
@<TRIPOS>SUBSTRUCTURE
     1 UNK         1 GROUP             0       ****    0 ROOT    
