@<TRIPOS>MOLECULE
3R136
137   139    1
SMALL
USER_CHARGES


@<TRIPOS>ATOM
      1 CA         28.1820   20.8601    0.4741 C.3       0 UNK        -0.1979 
      2 C          28.9962   22.1296    0.2801 C.2       0 UNK         0.4864 
      3 O          28.6421   23.1685    0.8344 O.2       0 UNK        -0.5359 
      4 N          30.0817   22.0543   -0.5034 N.am      1 UNK        -0.4318 
      5 CA         31.0360   23.1264   -0.8370 C.3       1 UNK         0.0824 
      6 C6         31.7320   23.7709    0.3915 C.3       12 UNK        -0.0944 
      7 S7         32.8179   22.6055    1.2815 S.3       12 UNK        -0.2672 
      8 C8         31.7787   22.0472    2.6773 C.3       12 UNK         0.0333 
      9 C9         31.2653   23.1670    3.5799 C.ar      12 UNK        -0.0807 
     10 C10        32.0870   24.2389    3.9456 C.ar      12 UNK        -0.0894 
     11 C11        31.6159   25.2501    4.7878 C.ar      12 UNK        -0.0804 
     12 C12        30.3034   25.1778    5.2705 C.ar      12 UNK        -0.0824 
     13 C13        29.4786   24.0975    4.9392 C.ar      12 UNK        -0.0762 
     14 C14        29.9628   23.1024    4.0857 C.ar      12 UNK        -0.0782 
     15 C15        28.0854   23.9771    5.5486 C.3       12 UNK         0.0230 
     16 S16        26.7441   24.2347    4.3417 S.3       12 UNK        -0.2608 
     17 C17        27.0125   25.9692    3.8555 C.3       12 UNK        -0.0989 
     18 CA         27.0533   26.1133    2.3079 C.3       5 UNK         0.0716 
     19 N          25.7381   26.0750    1.6546 N.am      5 UNK        -0.4135 
     20 C          24.6518   26.8223    1.9111 C.2       4 UNK         0.5031 
     21 O          24.5844   27.6729    2.8007 O.2       4 UNK        -0.5229 
     22 CA         23.4049   26.5402    1.0424 C.3       4 UNK         0.0329 
     23 CB         22.3625   27.6796    1.0860 C.3       4 UNK        -0.2001 
     24 N          23.7289   26.1700   -0.3414 N.am      4 UNK        -0.4303 
     25 C          24.3448   26.9305   -1.2577 C.2       3 UNK         0.5044 
     26 O          24.6605   28.1107   -1.0961 O.2       3 UNK        -0.5152 
     27 CA         24.7067   26.2289   -2.5785 C.3       3 UNK         0.0319 
     28 CB         24.0676   26.9427   -3.7816 C.3       3 UNK        -0.2001 
     29 N          26.1588   26.1663   -2.7623 N.am      3 UNK        -0.4354 
     30 C          27.0075   25.5430   -1.9337 C.2       2 UNK         0.4964 
     31 O          26.6506   24.9005   -0.9417 O.2       2 UNK        -0.5047 
     32 CA         28.4988   25.6769   -2.2635 C.3       2 UNK         0.0288 
     33 CB         29.0081   27.1037   -1.9835 C.3       2 UNK        -0.2113 
     34 N          29.2508   24.7106   -1.4680 N.am      2 UNK        -0.4145 
     35 C          30.4491   24.2047   -1.7744 C.2       1 UNK         0.5006 
     36 O          31.0922   24.5446   -2.7694 O.2       1 UNK        -0.5103 
     37 C          27.8971   27.3245    1.8744 C.2       5 UNK         0.5055 
     38 O          27.3748   28.3897    1.5409 O.2       5 UNK        -0.5220 
     39 N          29.2229   27.1431    1.9286 N.am      6 UNK        -0.4450 
     40 CA         30.2368   28.1503    1.6062 C.3       6 UNK         0.0367 
     41 CB         31.5120   27.4284    1.1401 C.3       6 UNK        -0.1929 
     42 C          30.4809   29.1303    2.7723 C.2       6 UNK         0.5070 
     43 O          31.6301   29.3842    3.1470 O.2       6 UNK        -0.5237 
     44 N          29.3868   29.6724    3.3213 N.am      7 UNK        -0.4739 
     45 CA         29.3760   30.6880    4.3725 C.3       7 UNK         0.0276 
     46 CB         27.9290   30.9332    4.8273 C.3       7 UNK        -0.1927 
     47 C          30.0244   31.9876    3.8726 C.2       7 UNK         0.5013 
     48 O          29.6640   32.4679    2.7959 O.2       7 UNK        -0.5193 
     49 N          31.0126   32.4847    4.6250 N.am      8 UNK        -0.4253 
     50 CA         31.9293   33.5970    4.3358 C.3       8 UNK         0.0242 
     51 CB         31.1762   34.9170    4.0778 C.3       8 UNK        -0.2000 
     52 C          32.9446   33.2991    3.2152 C.2       8 UNK         0.4948 
     53 O          34.0674   33.8000    3.2839 O.2       8 UNK        -0.5275 
     54 N          32.5537   32.4916    2.2206 N.am      9 UNK        -0.4246 
     55 CA         33.3872   32.0487    1.1043 C.3       9 UNK         0.0261 
     56 CB         32.5057   31.3806    0.0363 C.3       9 UNK        -0.1959 
     57 C          34.5308   31.1158    1.5364 C.2       9 UNK         0.5033 
     58 O          35.6545   31.3030    1.0663 O.2       9 UNK        -0.5390 
     59 N          34.2347   30.1420    2.4099 N.am      10 UNK        -0.4215 
     60 CA         35.2087   29.1715    2.9187 C.3       10 UNK         0.0240 
     61 CB         34.9128   27.7797    2.3371 C.3       10 UNK        -0.1982 
     62 C          35.2549   29.1090    4.4516 C.2       10 UNK         0.4970 
     63 O          36.3289   28.8272    4.9853 O.2       10 UNK        -0.4916 
     64 N          34.1330   29.3547    5.1425 N.am      11 UNK        -0.4279 
     65 CA         34.0557   29.2859    6.6107 C.3       11 UNK         0.1003 
     66 C          32.9711   30.2227    7.2010 C.2       11 UNK         0.5709 
     67 N          32.9370   30.3884    8.5160 N.am      11 UNK        -0.7358 
     68 O          32.1624   30.8060    6.4847 O.2       11 UNK        -0.4999 
     69 C69        33.9839   27.8211    7.1356 C.3       12 UNK        -0.0954 
     70 S70        32.3922   26.9618    6.8777 S.3       12 UNK        -0.2268 
     71 C71        32.5425   26.4086    5.1478 C.3       12 UNK         0.0203 
     72 H72        27.1655   21.0103    0.1114 H         1 UNK         0.0888 
     73 H73        28.6125   20.0122   -0.0581 H         1 UNK         0.0888 
     74 H74        28.1320   20.6075    1.5329 H         1 UNK         0.0888 
     75 H75        30.2919   21.1674   -0.9399 H         1 UNK         0.3017 
     76 H76        31.8154   22.6332   -1.4208 H         1 UNK         0.0873 
     77 H77        32.3731   24.5937    0.0694 H         1 UNK         0.0745 
     78 H78        31.0070   24.2151    1.0738 H         1 UNK         0.0745 
     79 H79        32.3665   21.3605    3.2874 H         1 UNK         0.0705 
     80 H80        30.9492   21.4623    2.2808 H         1 UNK         0.0705 
     81 H81        33.1002   24.2858    3.5707 H         1 UNK         0.1334 
     82 H82        29.9297   25.9522    5.9261 H         1 UNK         0.1417 
     83 H83        29.3223   22.2707    3.8247 H         1 UNK         0.1562 
     84 H84        27.9608   24.6817    6.3725 H         1 UNK         0.0748 
     85 H85        27.9744   22.9833    5.9847 H         1 UNK         0.0748 
     86 H86        27.9423   26.3169    4.3062 H         1 UNK         0.0940 
     87 H87        26.2402   26.5882    4.3103 H         1 UNK         0.0940 
     88 H88        27.5772   25.2461    1.9053 H         1 UNK         0.0703 
     89 H89        25.7054   25.4619    0.8475 H         1 UNK         0.3081 
     90 H90        22.9357   25.6594    1.4834 H         1 UNK         0.0719 
     91 H91        22.7789   28.6243    0.7352 H         1 UNK         0.0809 
     92 H92        21.4925   27.4467    0.4722 H         1 UNK         0.0809 
     93 H93        22.0047   27.8428    2.1033 H         1 UNK         0.0809 
     94 H94        23.5340   25.2083   -0.5857 H         1 UNK         0.2990 
     95 H95        24.3299   25.2040   -2.5548 H         1 UNK         0.0690 
     96 H96        24.2736   26.4147   -4.7129 H         1 UNK         0.0788 
     97 H97        24.4329   27.9652   -3.8866 H         1 UNK         0.0788 
     98 H98        22.9834   26.9943   -3.6722 H         1 UNK         0.0788 
     99 H99        26.5355   26.6970   -3.5343 H         1 UNK         0.2993 
    100 H100       28.6316   25.4416   -3.3218 H         1 UNK         0.0949 
    101 H101       28.8350   27.3911   -0.9477 H         1 UNK         0.0767 
    102 H102       30.0758   27.1958   -2.1831 H         1 UNK         0.0767 
    103 H103       28.4997   27.8357   -2.6117 H         1 UNK         0.0767 
    104 H104       28.7598   24.3369   -0.6552 H         1 UNK         0.3013 
    105 H105       29.5719   26.2535    2.2579 H         1 UNK         0.3121 
    106 H106       29.8814   28.7561    0.7702 H         1 UNK         0.0774 
    107 H107       32.3081   28.1353    0.9064 H         1 UNK         0.0815 
    108 H108       31.8847   26.7427    1.9008 H         1 UNK         0.0815 
    109 H109       31.3243   26.8527    0.2342 H         1 UNK         0.0815 
    110 H110       28.4945   29.4428    2.8967 H         1 UNK         0.2987 
    111 H111       29.9431   30.2963    5.2188 H         1 UNK         0.0949 
    112 H112       27.3073   31.3045    4.0114 H         1 UNK         0.0806 
    113 H113       27.4720   30.0194    5.2079 H         1 UNK         0.0806 
    114 H114       27.8928   31.6724    5.6286 H         1 UNK         0.0806 
    115 H115       31.2884   31.9314    5.4373 H         1 UNK         0.3010 
    116 H116       32.5133   33.7281    5.2484 H         1 UNK         0.0829 
    117 H117       30.4867   35.1460    4.8903 H         1 UNK         0.0813 
    118 H118       31.8748   35.7510    4.0003 H         1 UNK         0.0813 
    119 H119       30.6054   34.8900    3.1493 H         1 UNK         0.0813 
    120 H120       31.5894   32.1781    2.2334 H         1 UNK         0.3038 
    121 H121       33.8394   32.9373    0.6586 H         1 UNK         0.0769 
    122 H122       33.1060   31.0391   -0.8082 H         1 UNK         0.0811 
    123 H123       31.7634   32.0764   -0.3553 H         1 UNK         0.0811 
    124 H124       31.9751   30.5148    0.4308 H         1 UNK         0.0811 
    125 H125       33.2676   30.0248    2.7106 H         1 UNK         0.3204 
    126 H126       36.2144   29.4517    2.5987 H         1 UNK         0.0748 
    127 H127       35.6742   27.0602    2.6414 H         1 UNK         0.0771 
    128 H128       33.9536   27.3986    2.6813 H         1 UNK         0.0771 
    129 H129       34.9001   27.7973    1.2472 H         1 UNK         0.0771 
    130 H130       33.2661   29.5864    4.6727 H         1 UNK         0.2980 
    131 H131       34.9891   29.7117    6.9846 H         1 UNK         0.0545 
    132 H132       32.2364   30.9941    8.9126 H         1 UNK         0.3459 
    133 H133       33.5905   29.9154    9.1200 H         1 UNK         0.3459 
    134 H134       34.1792   27.8120    8.2088 H         1 UNK         0.0616 
    135 H135       34.7848   27.2210    6.7019 H         1 UNK         0.0616 
    136 H136       32.3197   27.2480    4.4919 H         1 UNK         0.0634 
    137 H137       33.5798   26.1282    4.9589 H         1 UNK         0.0634 
@<TRIPOS>BOND
     1    1    2 1    
     2    1   72 1    
     3    1   73 1    
     4    1   74 1    
     5    2    3 2    
     6    2    4 am   BACKBONE|DICT|INTERRES
     7    4    5 1    
     8    4   75 1    
     9    5    6 1    
    10    5   35 1    
    11    5   76 1    
    12    6    7 1    
    13    6   77 1    
    14    6   78 1    
    15    7    8 1    
    16    8    9 1    
    17    8   79 1    
    18    8   80 1    
    19    9   10 ar   
    20    9   14 ar   
    21   10   11 ar   
    22   10   81 1    
    23   11   12 ar   
    24   11   71 1    
    25   12   13 ar   
    26   12   82 1    
    27   13   14 ar   
    28   13   15 1    
    29   14   83 1    
    30   15   16 1    
    31   15   84 1    
    32   15   85 1    
    33   16   17 1    
    34   17   18 1    
    35   17   86 1    
    36   17   87 1    
    37   18   19 1    
    38   18   37 1    
    39   18   88 1    
    40   19   20 am   BACKBONE|DICT|INTERRES
    41   19   89 1    
    42   20   21 2    
    43   20   22 1    
    44   22   23 1    
    45   22   24 1    
    46   22   90 1    
    47   23   91 1    
    48   23   92 1    
    49   23   93 1    
    50   24   25 am   BACKBONE|DICT|INTERRES
    51   24   94 1    
    52   25   26 2    
    53   25   27 1    
    54   27   28 1    
    55   27   29 1    
    56   27   95 1    
    57   28   96 1    
    58   28   97 1    
    59   28   98 1    
    60   29   30 am   BACKBONE|DICT|INTERRES
    61   29   99 1    
    62   30   31 2    
    63   30   32 1    
    64   32   33 1    
    65   32   34 1    
    66   32  100 1    
    67   33  101 1    
    68   33  102 1    
    69   33  103 1    
    70   34   35 am   BACKBONE|DICT|INTERRES
    71   34  104 1    
    72   35   36 2    
    73   37   38 2    
    74   37   39 am   BACKBONE|DICT|INTERRES
    75   39   40 1    
    76   39  105 1    
    77   40   41 1    
    78   40   42 1    
    79   40  106 1    
    80   41  107 1    
    81   41  108 1    
    82   41  109 1    
    83   42   43 2    
    84   42   44 am   BACKBONE|DICT|INTERRES
    85   44   45 1    
    86   44  110 1    
    87   45   46 1    
    88   45   47 1    
    89   45  111 1    
    90   46  112 1    
    91   46  113 1    
    92   46  114 1    
    93   47   48 2    
    94   47   49 am   BACKBONE|DICT|INTERRES
    95   49   50 1    
    96   49  115 1    
    97   50   51 1    
    98   50   52 1    
    99   50  116 1    
   100   51  117 1    
   101   51  118 1    
   102   51  119 1    
   103   52   53 2    
   104   52   54 am   BACKBONE|DICT|INTERRES
   105   54   55 1    
   106   54  120 1    
   107   55   56 1    
   108   55   57 1    
   109   55  121 1    
   110   56  122 1    
   111   56  123 1    
   112   56  124 1    
   113   57   58 2    
   114   57   59 am   BACKBONE|DICT|INTERRES
   115   59   60 1    
   116   59  125 1    
   117   60   61 1    
   118   60   62 1    
   119   60  126 1    
   120   61  127 1    
   121   61  128 1    
   122   61  129 1    
   123   62   63 2    
   124   62   64 am   BACKBONE|DICT|INTERRES
   125   64   65 1    
   126   64  130 1    
   127   65   66 1    
   128   65   69 1    
   129   65  131 1    
   130   66   67 am   BACKBONE|DICT|INTERRES
   131   66   68 2    
   132   67  132 1    
   133   67  133 1    
   134   69   70 1    
   135   69  134 1    
   136   69  135 1    
   137   70   71 1    
   138   71  136 1    
   139   71  137 1    
@<TRIPOS>SUBSTRUCTURE
     1 UNK         1 GROUP             0       ****    0 ROOT    
