@<TRIPOS>MOLECULE
3R136
137   139    1
SMALL
USER_CHARGES


@<TRIPOS>ATOM
      1 CA         33.9327   24.5875   -0.9107 C.3       0 UNK        -0.1979 
      2 C          32.5556   23.9490   -1.0170 C.2       0 UNK         0.4864 
      3 O          32.2202   23.3982   -2.0661 O.2       0 UNK        -0.5359 
      4 N          31.7619   24.0308    0.0620 N.am      1 UNK        -0.4318 
      5 CA         30.4148   23.4532    0.2137 C.3       1 UNK         0.0824 
      6 C6         30.3887   21.8928    0.2225 C.3       12 UNK        -0.0944 
      7 S7         31.7431   21.0809    1.1481 S.3       12 UNK        -0.2672 
      8 C8         31.1908   21.1898    2.8823 C.3       12 UNK         0.0333 
      9 C9         31.2505   22.6122    3.4254 C.ar      12 UNK        -0.0807 
     10 C10        32.4267   23.3642    3.3241 C.ar      12 UNK        -0.0894 
     11 C11        32.4670   24.6862    3.7741 C.ar      12 UNK        -0.0804 
     12 C12        31.3301   25.2466    4.3621 C.ar      12 UNK        -0.0824 
     13 C13        30.1517   24.5024    4.4796 C.ar      12 UNK        -0.0762 
     14 C14        30.1201   23.1840    4.0164 C.ar      12 UNK        -0.0782 
     15 C15        28.8985   25.1338    5.0710 C.3       12 UNK         0.0230 
     16 S16        27.6395   25.4492    3.7901 S.3       12 UNK        -0.2608 
     17 C17        28.5184   26.6342    2.7156 C.3       12 UNK        -0.0989 
     18 CA         27.8907   28.0423    2.6383 C.3       5 UNK         0.0716 
     19 N          26.6268   28.0330    1.9095 N.am      5 UNK        -0.4135 
     20 C          26.0746   29.1059    1.3326 C.2       4 UNK         0.5031 
     21 O          26.5920   30.2260    1.3553 O.2       4 UNK        -0.5229 
     22 CA         24.7581   28.8686    0.5692 C.3       4 UNK         0.0329 
     23 CB         24.2612   30.1342   -0.1539 C.3       4 UNK        -0.2001 
     24 N          24.9160   27.7936   -0.4125 N.am      4 UNK        -0.4303 
     25 C          24.8673   26.4812   -0.1543 C.2       3 UNK         0.5044 
     26 O          24.6177   26.0164    0.9583 O.2       3 UNK        -0.5152 
     27 CA         25.2046   25.5293   -1.3140 C.3       3 UNK         0.0319 
     28 CB         24.3933   25.8425   -2.5891 C.3       3 UNK        -0.2001 
     29 N          26.6447   25.4573   -1.5960 N.am      3 UNK        -0.4354 
     30 C          27.4689   26.4316   -2.0059 C.2       2 UNK         0.4964 
     31 O          27.1059   27.5917   -2.2075 O.2       2 UNK        -0.5047 
     32 CA         28.9406   26.0381   -2.2588 C.3       2 UNK         0.0288 
     33 CB         29.8217   27.2467   -2.6312 C.3       2 UNK        -0.2113 
     34 N          29.5913   25.3291   -1.1518 N.am      2 UNK        -0.4145 
     35 C          29.3979   24.0510   -0.7915 C.2       1 UNK         0.5006 
     36 O          28.4850   23.3539   -1.2405 O.2       1 UNK        -0.5103 
     37 C          27.7700   28.7794    3.9911 C.2       5 UNK         0.5055 
     38 O          26.6626   29.0849    4.4395 O.2       5 UNK        -0.5220 
     39 N          28.9314   29.1293    4.5550 N.am      6 UNK        -0.4450 
     40 CA         29.2073   30.1735    5.5482 C.3       6 UNK         0.0367 
     41 CB         28.2359   30.1793    6.7450 C.3       6 UNK        -0.1929 
     42 C          29.3270   31.5561    4.8817 C.2       6 UNK         0.5070 
     43 O          30.1900   32.3356    5.2844 O.2       6 UNK        -0.5237 
     44 N          28.5069   31.8229    3.8540 N.am      7 UNK        -0.4739 
     45 CA         28.5972   33.0045    2.9974 C.3       7 UNK         0.0276 
     46 CB         27.1853   33.5049    2.6453 C.3       7 UNK        -0.1927 
     47 C          29.4202   32.7003    1.7356 C.2       7 UNK         0.5013 
     48 O          30.4443   33.3477    1.5171 O.2       7 UNK        -0.5193 
     49 N          28.9680   31.7277    0.9275 N.am      8 UNK        -0.4253 
     50 CA         29.5838   31.3684   -0.3581 C.3       8 UNK         0.0242 
     51 CB         28.5828   30.5514   -1.1904 C.3       8 UNK        -0.2000 
     52 C          30.9153   30.6070   -0.2268 C.2       8 UNK         0.4948 
     53 O          31.7524   30.6948   -1.1256 O.2       8 UNK        -0.5275 
     54 N          31.0877   29.8810    0.8813 N.am      9 UNK        -0.4246 
     55 CA         32.2982   29.1630    1.2637 C.3       9 UNK         0.0261 
     56 CB         32.2797   27.7361    0.6850 C.3       9 UNK        -0.1959 
     57 C          32.2979   29.1494    2.7910 C.2       9 UNK         0.5033 
     58 O          31.3103   28.6881    3.3625 O.2       9 UNK        -0.5390 
     59 N          33.3472   29.6973    3.4144 N.am      10 UNK        -0.4215 
     60 CA         33.4139   29.9710    4.8524 C.3       10 UNK         0.0240 
     61 CB         34.5679   30.9528    5.1347 C.3       10 UNK        -0.1982 
     62 C          33.4895   28.7034    5.7235 C.2       10 UNK         0.4970 
     63 O          32.4693   28.2896    6.2738 O.2       10 UNK        -0.4916 
     64 N          34.7007   28.1434    5.8639 N.am      11 UNK        -0.4279 
     65 CA         35.0400   27.0215    6.7641 C.3       11 UNK         0.1003 
     66 C          34.8498   27.3276    8.2845 C.2       11 UNK         0.5709 
     67 N          34.8149   28.5872    8.7043 N.am      11 UNK        -0.7358 
     68 O          34.7711   26.4173    9.1065 O.2       11 UNK        -0.4999 
     69 C69        34.3968   25.6716    6.3300 C.3       12 UNK        -0.0954 
     70 S70        35.0490   25.0712    4.7369 S.3       12 UNK        -0.2268 
     71 C71        33.7228   25.5226    3.5807 C.3       12 UNK         0.0203 
     72 H72        33.9972   25.4523   -1.5706 H         1 UNK         0.0888 
     73 H73        34.1550   24.9147    0.1043 H         1 UNK         0.0888 
     74 H74        34.7002   23.8733   -1.2081 H         1 UNK         0.0888 
     75 H75        32.1215   24.4719    0.8960 H         1 UNK         0.3017 
     76 H76        30.0646   23.7867    1.1907 H         1 UNK         0.0873 
     77 H77        29.4349   21.5338    0.6134 H         1 UNK         0.0745 
     78 H78        30.4514   21.5165   -0.8004 H         1 UNK         0.0745 
     79 H79        31.8342   20.5570    3.4947 H         1 UNK         0.0705 
     80 H80        30.1841   20.7766    2.9622 H         1 UNK         0.0705 
     81 H81        33.3052   22.9276    2.8683 H         1 UNK         0.1334 
     82 H82        31.3565   26.2726    4.7062 H         1 UNK         0.1417 
     83 H83        29.2034   22.6151    4.0953 H         1 UNK         0.1562 
     84 H84        29.1358   26.0691    5.5812 H         1 UNK         0.0748 
     85 H85        28.4791   24.4686    5.8270 H         1 UNK         0.0748 
     86 H86        28.5655   26.2007    1.7155 H         1 UNK         0.0940 
     87 H87        29.5571   26.7268    3.0256 H         1 UNK         0.0940 
     88 H88        28.5774   28.6411    2.0360 H         1 UNK         0.0703 
     89 H89        26.1170   27.1574    1.8865 H         1 UNK         0.3081 
     90 H90        24.0025   28.5793    1.3026 H         1 UNK         0.0719 
     91 H91        24.9805   30.4822   -0.8965 H         1 UNK         0.0809 
     92 H92        23.3136   29.9548   -0.6620 H         1 UNK         0.0809 
     93 H93        24.1005   30.9500    0.5523 H         1 UNK         0.0809 
     94 H94        25.2884   28.0611   -1.3172 H         1 UNK         0.2990 
     95 H95        24.9150   24.5292   -0.9870 H         1 UNK         0.0690 
     96 H96        24.5472   25.0758   -3.3484 H         1 UNK         0.0788 
     97 H97        24.6609   26.8023   -3.0314 H         1 UNK         0.0788 
     98 H98        23.3245   25.8715   -2.3728 H         1 UNK         0.0788 
     99 H99        27.0746   24.5468   -1.4450 H         1 UNK         0.2993 
    100 H100       28.9286   25.3668   -3.1203 H         1 UNK         0.0949 
    101 H101       29.9151   27.9471   -1.8011 H         1 UNK         0.0767 
    102 H102       30.8257   26.9323   -2.9172 H         1 UNK         0.0767 
    103 H103       29.4066   27.7948   -3.4783 H         1 UNK         0.0767 
    104 H104       30.3594   25.8160   -0.7169 H         1 UNK         0.3013 
    105 H105       29.7895   28.8099    4.0962 H         1 UNK         0.3121 
    106 H106       30.1954   29.9300    5.9415 H         1 UNK         0.0774 
    107 H107       28.6086   30.8307    7.5361 H         1 UNK         0.0815 
    108 H108       27.2468   30.5468    6.4709 H         1 UNK         0.0815 
    109 H109       28.1223   29.1822    7.1700 H         1 UNK         0.0815 
    110 H110       27.8072   31.1359    3.6064 H         1 UNK         0.2987 
    111 H111       29.1038   33.8107    3.5331 H         1 UNK         0.0949 
    112 H112       27.2331   34.3733    1.9868 H         1 UNK         0.0806 
    113 H113       26.5887   32.7457    2.1396 H         1 UNK         0.0806 
    114 H114       26.6428   33.8090    3.5405 H         1 UNK         0.0806 
    115 H115       28.0944   31.2550    1.1570 H         1 UNK         0.3010 
    116 H116       29.7926   32.2940   -0.8991 H         1 UNK         0.0829 
    117 H117       27.6474   31.0922   -1.3342 H         1 UNK         0.0813 
    118 H118       28.9837   30.3301   -2.1804 H         1 UNK         0.0813 
    119 H119       28.3469   29.5984   -0.7160 H         1 UNK         0.0813 
    120 H120       30.3709   29.9055    1.5920 H         1 UNK         0.3038 
    121 H121       33.1778   29.6972    0.8977 H         1 UNK         0.0769 
    122 H122       31.4278   27.1627    1.0520 H         1 UNK         0.0811 
    123 H123       33.1852   27.1963    0.9622 H         1 UNK         0.0811 
    124 H124       32.2325   27.7519   -0.4039 H         1 UNK         0.0811 
    125 H125       34.1182   30.0364    2.8569 H         1 UNK         0.3204 
    126 H126       32.4891   30.4821    5.1289 H         1 UNK         0.0748 
    127 H127       34.6664   31.1477    6.2036 H         1 UNK         0.0771 
    128 H128       35.5285   30.5816    4.7761 H         1 UNK         0.0771 
    129 H129       34.3871   31.9145    4.6537 H         1 UNK         0.0771 
    130 H130       35.4813   28.5566    5.3760 H         1 UNK         0.2980 
    131 H131       36.1194   26.8999    6.6673 H         1 UNK         0.0545 
    132 H132       34.8998   29.3493    8.0526 H         1 UNK         0.3459 
    133 H133       34.7048   28.7736    9.6886 H         1 UNK         0.3459 
    134 H134       33.3102   25.7457    6.3000 H         1 UNK         0.0616 
    135 H135       34.6183   24.8868    7.0547 H         1 UNK         0.0616 
    136 H136       34.0921   25.3854    2.5642 H         1 UNK         0.0634 
    137 H137       33.5011   26.5841    3.6812 H         1 UNK         0.0634 
@<TRIPOS>BOND
     1    1    2 1    
     2    1   72 1    
     3    1   73 1    
     4    1   74 1    
     5    2    3 2    
     6    2    4 am   BACKBONE|DICT|INTERRES
     7    4    5 1    
     8    4   75 1    
     9    5    6 1    
    10    5   35 1    
    11    5   76 1    
    12    6    7 1    
    13    6   77 1    
    14    6   78 1    
    15    7    8 1    
    16    8    9 1    
    17    8   79 1    
    18    8   80 1    
    19    9   10 ar   
    20    9   14 ar   
    21   10   11 ar   
    22   10   81 1    
    23   11   12 ar   
    24   11   71 1    
    25   12   13 ar   
    26   12   82 1    
    27   13   14 ar   
    28   13   15 1    
    29   14   83 1    
    30   15   16 1    
    31   15   84 1    
    32   15   85 1    
    33   16   17 1    
    34   17   18 1    
    35   17   86 1    
    36   17   87 1    
    37   18   19 1    
    38   18   37 1    
    39   18   88 1    
    40   19   20 am   BACKBONE|DICT|INTERRES
    41   19   89 1    
    42   20   21 2    
    43   20   22 1    
    44   22   23 1    
    45   22   24 1    
    46   22   90 1    
    47   23   91 1    
    48   23   92 1    
    49   23   93 1    
    50   24   25 am   BACKBONE|DICT|INTERRES
    51   24   94 1    
    52   25   26 2    
    53   25   27 1    
    54   27   28 1    
    55   27   29 1    
    56   27   95 1    
    57   28   96 1    
    58   28   97 1    
    59   28   98 1    
    60   29   30 am   BACKBONE|DICT|INTERRES
    61   29   99 1    
    62   30   31 2    
    63   30   32 1    
    64   32   33 1    
    65   32   34 1    
    66   32  100 1    
    67   33  101 1    
    68   33  102 1    
    69   33  103 1    
    70   34   35 am   BACKBONE|DICT|INTERRES
    71   34  104 1    
    72   35   36 2    
    73   37   38 2    
    74   37   39 am   BACKBONE|DICT|INTERRES
    75   39   40 1    
    76   39  105 1    
    77   40   41 1    
    78   40   42 1    
    79   40  106 1    
    80   41  107 1    
    81   41  108 1    
    82   41  109 1    
    83   42   43 2    
    84   42   44 am   BACKBONE|DICT|INTERRES
    85   44   45 1    
    86   44  110 1    
    87   45   46 1    
    88   45   47 1    
    89   45  111 1    
    90   46  112 1    
    91   46  113 1    
    92   46  114 1    
    93   47   48 2    
    94   47   49 am   BACKBONE|DICT|INTERRES
    95   49   50 1    
    96   49  115 1    
    97   50   51 1    
    98   50   52 1    
    99   50  116 1    
   100   51  117 1    
   101   51  118 1    
   102   51  119 1    
   103   52   53 2    
   104   52   54 am   BACKBONE|DICT|INTERRES
   105   54   55 1    
   106   54  120 1    
   107   55   56 1    
   108   55   57 1    
   109   55  121 1    
   110   56  122 1    
   111   56  123 1    
   112   56  124 1    
   113   57   58 2    
   114   57   59 am   BACKBONE|DICT|INTERRES
   115   59   60 1    
   116   59  125 1    
   117   60   61 1    
   118   60   62 1    
   119   60  126 1    
   120   61  127 1    
   121   61  128 1    
   122   61  129 1    
   123   62   63 2    
   124   62   64 am   BACKBONE|DICT|INTERRES
   125   64   65 1    
   126   64  130 1    
   127   65   66 1    
   128   65   69 1    
   129   65  131 1    
   130   66   67 am   BACKBONE|DICT|INTERRES
   131   66   68 2    
   132   67  132 1    
   133   67  133 1    
   134   69   70 1    
   135   69  134 1    
   136   69  135 1    
   137   70   71 1    
   138   71  136 1    
   139   71  137 1    
@<TRIPOS>SUBSTRUCTURE
     1 UNK         1 GROUP             0       ****    0 ROOT    
