@<TRIPOS>MOLECULE
3R136
137   139    1
SMALL
USER_CHARGES


@<TRIPOS>ATOM
      1 CA         25.6031   21.9295   -1.1545 C.3       0 UNK        -0.1979 
      2 C          26.9877   22.3580   -0.6936 C.2       0 UNK         0.4864 
      3 O          27.1300   23.4408   -0.1227 O.2       0 UNK        -0.5359 
      4 N          28.0090   21.5250   -0.9440 N.am      1 UNK        -0.4318 
      5 CA         29.4117   21.7637   -0.5834 C.3       1 UNK         0.0824 
      6 C6         29.6161   21.7287    0.9581 C.3       12 UNK        -0.0944 
      7 S7         31.3557   21.5063    1.4609 S.3       12 UNK        -0.2672 
      8 C8         31.1595   21.0670    3.2162 C.3       12 UNK         0.0333 
      9 C9         30.5620   22.2098    4.0253 C.ar      12 UNK        -0.0807 
     10 C10        31.3873   23.1956    4.5739 C.ar      12 UNK        -0.0894 
     11 C11        30.8417   24.2333    5.3366 C.ar      12 UNK        -0.0804 
     12 C12        29.4575   24.2948    5.5303 C.ar      12 UNK        -0.0824 
     13 C13        28.6233   23.3136    4.9845 C.ar      12 UNK        -0.0762 
     14 C14        29.1826   22.2705    4.2419 C.ar      12 UNK        -0.0782 
     15 C15        27.1206   23.3482    5.2179 C.3       12 UNK         0.0230 
     16 S16        26.2180   23.9199    3.7439 S.3       12 UNK        -0.2608 
     17 C17        26.4563   25.7275    3.8330 C.3       12 UNK        -0.0989 
     18 CA         27.2623   26.3025    2.6344 C.3       5 UNK         0.0716 
     19 N          26.6620   25.9761    1.3338 N.am      5 UNK        -0.4135 
     20 C          25.5053   26.4364    0.8347 C.2       4 UNK         0.5031 
     21 O          24.7634   27.2343    1.4119 O.2       4 UNK        -0.5229 
     22 CA         25.1254   25.8969   -0.5574 C.3       4 UNK         0.0329 
     23 CB         23.8262   26.5093   -1.1262 C.3       4 UNK        -0.2001 
     24 N          26.2420   26.0112   -1.5067 N.am      4 UNK        -0.4303 
     25 C          26.7919   27.1436   -1.9695 C.2       3 UNK         0.5044 
     26 O          26.3770   28.2719   -1.6999 O.2       3 UNK        -0.5152 
     27 CA         28.0137   26.9753   -2.8968 C.3       3 UNK         0.0319 
     28 CB         28.6252   28.3264   -3.3260 C.3       3 UNK        -0.2001 
     29 N          29.0681   26.1043   -2.3583 N.am      3 UNK        -0.4354 
     30 C          29.7046   26.2232   -1.1837 C.2       2 UNK         0.4964 
     31 O          29.3735   27.0024   -0.2901 O.2       2 UNK        -0.5047 
     32 CA         30.9175   25.3001   -0.9728 C.3       2 UNK         0.0288 
     33 CB         31.9149   25.8761    0.0476 C.3       2 UNK        -0.2113 
     34 N          30.4906   23.9832   -0.5171 N.am      2 UNK        -0.4145 
     35 C          29.9333   23.0406   -1.2859 C.2       1 UNK         0.5006 
     36 O          29.8003   23.1544   -2.5080 O.2       1 UNK        -0.5103 
     37 C          27.5137   27.8217    2.7856 C.2       5 UNK         0.5055 
     38 O          27.0732   28.4246    3.7686 O.2       5 UNK        -0.5220 
     39 N          28.2037   28.4298    1.8098 N.am      6 UNK        -0.4450 
     40 CA         28.4950   29.8666    1.7347 C.3       6 UNK         0.0367 
     41 CB         28.8506   30.2322    0.2819 C.3       6 UNK        -0.1929 
     42 C          29.5859   30.3164    2.7271 C.2       6 UNK         0.5070 
     43 O          30.5747   30.9317    2.3244 O.2       6 UNK        -0.5237 
     44 N          29.3809   30.0322    4.0185 N.am      7 UNK        -0.4739 
     45 CA         30.3078   30.2795    5.1306 C.3       7 UNK         0.0276 
     46 CB         29.7556   29.5986    6.3938 C.3       7 UNK        -0.1927 
     47 C          30.6439   31.7603    5.4028 C.2       7 UNK         0.5013 
     48 O          31.5430   32.0386    6.1964 O.2       7 UNK        -0.5193 
     49 N          29.9329   32.6852    4.7449 N.am      8 UNK        -0.4253 
     50 CA         30.2589   34.1110    4.7012 C.3       8 UNK         0.0242 
     51 CB         29.0266   34.8916    4.2154 C.3       8 UNK        -0.2000 
     52 C          31.4775   34.4223    3.8085 C.2       8 UNK         0.4948 
     53 O          32.1085   35.4603    4.0137 O.2       8 UNK        -0.5275 
     54 N          31.7763   33.5463    2.8375 N.am      9 UNK        -0.4246 
     55 CA         32.8831   33.6864    1.8872 C.3       9 UNK         0.0261 
     56 CB         32.3144   33.8494    0.4671 C.3       9 UNK        -0.1959 
     57 C          33.8405   32.4868    1.9495 C.2       9 UNK         0.5033 
     58 O          35.0563   32.6855    1.9229 O.2       9 UNK        -0.5390 
     59 N          33.2844   31.2722    2.0250 N.am      10 UNK        -0.4215 
     60 CA         34.0050   30.0083    2.1647 C.3       10 UNK         0.0240 
     61 CB         33.2511   28.9382    1.3520 C.3       10 UNK        -0.1982 
     62 C          34.1279   29.6189    3.6496 C.2       10 UNK         0.4970 
     63 O          33.8711   30.4437    4.5280 O.2       10 UNK        -0.4916 
     64 N          34.5155   28.3613    3.9016 N.am      11 UNK        -0.4279 
     65 CA         34.5979   27.7309    5.2335 C.3       11 UNK         0.1003 
     66 C          35.7183   28.2965    6.1608 C.2       11 UNK         0.5709 
     67 N          36.6926   29.0371    5.6455 N.am      11 UNK        -0.7358 
     68 O          35.7323   28.0295    7.3604 O.2       11 UNK        -0.4999 
     69 C69        33.2144   27.6388    5.9453 C.3       12 UNK        -0.0954 
     70 S70        31.9681   26.7377    4.9569 S.3       12 UNK        -0.2268 
     71 C71        31.7548   25.2586    5.9895 C.3       12 UNK         0.0203 
     72 H72        25.2279   22.6205   -1.9087 H         1 UNK         0.0888 
     73 H73        25.6080   20.9274   -1.5828 H         1 UNK         0.0888 
     74 H74        24.9117   21.9347   -0.3123 H         1 UNK         0.0888 
     75 H75        27.8342   20.6697   -1.4530 H         1 UNK         0.3017 
     76 H76        29.9746   20.9344   -1.0147 H         1 UNK         0.0873 
     77 H77        29.0536   20.8899    1.3713 H         1 UNK         0.0745 
     78 H78        29.2041   22.6204    1.4344 H         1 UNK         0.0745 
     79 H79        32.1357   20.7983    3.6228 H         1 UNK         0.0705 
     80 H80        30.5401   20.1727    3.3008 H         1 UNK         0.0705 
     81 H81        32.4565   23.1472    4.4181 H         1 UNK         0.1334 
     82 H82        29.0346   25.0967    6.1199 H         1 UNK         0.1417 
     83 H83        28.5379   21.5081    3.8259 H         1 UNK         0.1562 
     84 H84        26.8693   23.9734    6.0761 H         1 UNK         0.0748 
     85 H85        26.7750   22.3441    5.4684 H         1 UNK         0.0748 
     86 H86        26.9524   25.9761    4.7727 H         1 UNK         0.0940 
     87 H87        25.4703   26.1927    3.8874 H         1 UNK         0.0940 
     88 H88        28.2467   25.8312    2.6413 H         1 UNK         0.0703 
     89 H89        27.1450   25.2666    0.7915 H         1 UNK         0.3081 
     90 H90        24.9359   24.8315   -0.4257 H         1 UNK         0.0719 
     91 H91        23.8914   27.5932   -1.2242 H         1 UNK         0.0809 
     92 H92        23.5887   26.0964   -2.1064 H         1 UNK         0.0809 
     93 H93        22.9803   26.2970   -0.4715 H         1 UNK         0.0809 
     94 H94        26.7012   25.1389   -1.7334 H         1 UNK         0.2990 
     95 H95        27.6412   26.4853   -3.7976 H         1 UNK         0.0690 
     96 H96        29.4352   28.1856   -4.0415 H         1 UNK         0.0788 
     97 H97        29.0242   28.8771   -2.4738 H         1 UNK         0.0788 
     98 H98        27.8793   28.9619   -3.8052 H         1 UNK         0.0788 
     99 H99        29.3673   25.3519   -2.9672 H         1 UNK         0.2993 
    100 H100       31.4391   25.1963   -1.9270 H         1 UNK         0.0949 
    101 H101       31.4689   25.9974    1.0362 H         1 UNK         0.0767 
    102 H102       32.7916   25.2366    0.1520 H         1 UNK         0.0767 
    103 H103       32.2647   26.8554   -0.2783 H         1 UNK         0.0767 
    104 H104       30.5632   23.8011    0.4741 H         1 UNK         0.3013 
    105 H105       28.5665   27.8642    1.0408 H         1 UNK         0.3121 
    106 H106       27.5851   30.4107    1.9958 H         1 UNK         0.0774 
    107 H107       29.0164   31.3048    0.1743 H         1 UNK         0.0815 
    108 H108       29.7584   29.7260   -0.0488 H         1 UNK         0.0815 
    109 H109       28.0467   29.9607   -0.4016 H         1 UNK         0.0815 
    110 H110       28.5270   29.5242    4.2387 H         1 UNK         0.2987 
    111 H111       31.2494   29.7969    4.8663 H         1 UNK         0.0949 
    112 H112       29.6145   28.5288    6.2375 H         1 UNK         0.0806 
    113 H113       30.4435   29.7114    7.2329 H         1 UNK         0.0806 
    114 H114       28.7979   30.0248    6.6944 H         1 UNK         0.0806 
    115 H115       29.1968   32.3624    4.1344 H         1 UNK         0.3010 
    116 H116       30.4981   34.4429    5.7139 H         1 UNK         0.0829 
    117 H117       28.1712   34.7331    4.8725 H         1 UNK         0.0813 
    118 H118       29.2263   35.9641    4.1997 H         1 UNK         0.0813 
    119 H119       28.7348   34.6004    3.2055 H         1 UNK         0.0813 
    120 H120       31.2198   32.7003    2.7590 H         1 UNK         0.3038 
    121 H121       33.4720   34.5766    2.1181 H         1 UNK         0.0769 
    122 H122       33.1159   33.9421   -0.2671 H         1 UNK         0.0811 
    123 H123       31.6988   34.7457    0.3898 H         1 UNK         0.0811 
    124 H124       31.7000   32.9960    0.1762 H         1 UNK         0.0811 
    125 H125       32.2690   31.1953    2.0827 H         1 UNK         0.3204 
    126 H126       35.0131   30.1105    1.7580 H         1 UNK         0.0748 
    127 H127       33.8224   28.0124    1.2830 H         1 UNK         0.0771 
    128 H128       32.2845   28.6972    1.7982 H         1 UNK         0.0771 
    129 H129       33.0685   29.2735    0.3308 H         1 UNK         0.0771 
    130 H130       34.7275   27.7547    3.1237 H         1 UNK         0.2980 
    131 H131       34.9164   26.7064    5.0385 H         1 UNK         0.0545 
    132 H132       37.4188   29.3871    6.2503 H         1 UNK         0.3459 
    133 H133       36.7002   29.2602    4.6636 H         1 UNK         0.3459 
    134 H134       32.8289   28.6331    6.1713 H         1 UNK         0.0616 
    135 H135       33.3159   27.1428    6.9118 H         1 UNK         0.0616 
    136 H136       32.7319   24.8143    6.1864 H         1 UNK         0.0634 
    137 H137       31.3493   25.5535    6.9586 H         1 UNK         0.0634 
@<TRIPOS>BOND
     1    1    2 1    
     2    1   72 1    
     3    1   73 1    
     4    1   74 1    
     5    2    3 2    
     6    2    4 am   BACKBONE|DICT|INTERRES
     7    4    5 1    
     8    4   75 1    
     9    5    6 1    
    10    5   35 1    
    11    5   76 1    
    12    6    7 1    
    13    6   77 1    
    14    6   78 1    
    15    7    8 1    
    16    8    9 1    
    17    8   79 1    
    18    8   80 1    
    19    9   10 ar   
    20    9   14 ar   
    21   10   11 ar   
    22   10   81 1    
    23   11   12 ar   
    24   11   71 1    
    25   12   13 ar   
    26   12   82 1    
    27   13   14 ar   
    28   13   15 1    
    29   14   83 1    
    30   15   16 1    
    31   15   84 1    
    32   15   85 1    
    33   16   17 1    
    34   17   18 1    
    35   17   86 1    
    36   17   87 1    
    37   18   19 1    
    38   18   37 1    
    39   18   88 1    
    40   19   20 am   BACKBONE|DICT|INTERRES
    41   19   89 1    
    42   20   21 2    
    43   20   22 1    
    44   22   23 1    
    45   22   24 1    
    46   22   90 1    
    47   23   91 1    
    48   23   92 1    
    49   23   93 1    
    50   24   25 am   BACKBONE|DICT|INTERRES
    51   24   94 1    
    52   25   26 2    
    53   25   27 1    
    54   27   28 1    
    55   27   29 1    
    56   27   95 1    
    57   28   96 1    
    58   28   97 1    
    59   28   98 1    
    60   29   30 am   BACKBONE|DICT|INTERRES
    61   29   99 1    
    62   30   31 2    
    63   30   32 1    
    64   32   33 1    
    65   32   34 1    
    66   32  100 1    
    67   33  101 1    
    68   33  102 1    
    69   33  103 1    
    70   34   35 am   BACKBONE|DICT|INTERRES
    71   34  104 1    
    72   35   36 2    
    73   37   38 2    
    74   37   39 am   BACKBONE|DICT|INTERRES
    75   39   40 1    
    76   39  105 1    
    77   40   41 1    
    78   40   42 1    
    79   40  106 1    
    80   41  107 1    
    81   41  108 1    
    82   41  109 1    
    83   42   43 2    
    84   42   44 am   BACKBONE|DICT|INTERRES
    85   44   45 1    
    86   44  110 1    
    87   45   46 1    
    88   45   47 1    
    89   45  111 1    
    90   46  112 1    
    91   46  113 1    
    92   46  114 1    
    93   47   48 2    
    94   47   49 am   BACKBONE|DICT|INTERRES
    95   49   50 1    
    96   49  115 1    
    97   50   51 1    
    98   50   52 1    
    99   50  116 1    
   100   51  117 1    
   101   51  118 1    
   102   51  119 1    
   103   52   53 2    
   104   52   54 am   BACKBONE|DICT|INTERRES
   105   54   55 1    
   106   54  120 1    
   107   55   56 1    
   108   55   57 1    
   109   55  121 1    
   110   56  122 1    
   111   56  123 1    
   112   56  124 1    
   113   57   58 2    
   114   57   59 am   BACKBONE|DICT|INTERRES
   115   59   60 1    
   116   59  125 1    
   117   60   61 1    
   118   60   62 1    
   119   60  126 1    
   120   61  127 1    
   121   61  128 1    
   122   61  129 1    
   123   62   63 2    
   124   62   64 am   BACKBONE|DICT|INTERRES
   125   64   65 1    
   126   64  130 1    
   127   65   66 1    
   128   65   69 1    
   129   65  131 1    
   130   66   67 am   BACKBONE|DICT|INTERRES
   131   66   68 2    
   132   67  132 1    
   133   67  133 1    
   134   69   70 1    
   135   69  134 1    
   136   69  135 1    
   137   70   71 1    
   138   71  136 1    
   139   71  137 1    
@<TRIPOS>SUBSTRUCTURE
     1 UNK         1 GROUP             0       ****    0 ROOT    
