@<TRIPOS>MOLECULE
3R136
137   139    1
SMALL
USER_CHARGES


@<TRIPOS>ATOM
      1 CA         32.3295   23.1679   -5.1000 C.3       0 UNK        -0.1979 
      2 C          31.3831   23.8520   -4.1241 C.2       0 UNK         0.4864 
      3 O          30.8674   24.9294   -4.4273 O.2       0 UNK        -0.5359 
      4 N          31.1594   23.2393   -2.9541 N.am      1 UNK        -0.4318 
      5 CA         30.2274   23.7154   -1.9273 C.3       1 UNK         0.0824 
      6 C6         30.5883   23.1351   -0.5355 C.3       12 UNK        -0.0944 
      7 S7         29.9601   24.1758    0.8214 S.3       12 UNK        -0.2672 
      8 C8         30.8137   23.4409    2.2434 C.3       12 UNK         0.0333 
      9 C9         30.4159   24.1659    3.5161 C.ar      12 UNK        -0.0807 
     10 C10        31.2247   25.1825    4.0330 C.ar      12 UNK        -0.0894 
     11 C11        30.8422   25.8747    5.1857 C.ar      12 UNK        -0.0804 
     12 C12        29.6437   25.5413    5.8203 C.ar      12 UNK        -0.0824 
     13 C13        28.8098   24.5518    5.2911 C.ar      12 UNK        -0.0762 
     14 C14        29.2109   23.8511    4.1510 C.ar      12 UNK        -0.0782 
     15 C15        27.4460   24.2899    5.9143 C.3       12 UNK         0.0230 
     16 S16        26.0959   25.0244    4.9266 S.3       12 UNK        -0.2608 
     17 C17        26.6365   26.7630    4.7609 C.3       12 UNK        -0.0989 
     18 CA         27.1581   27.0596    3.3227 C.3       5 UNK         0.0716 
     19 N          26.0727   27.0740    2.3270 N.am      5 UNK        -0.4135 
     20 C          25.0696   27.9694    2.2614 C.2       4 UNK         0.5031 
     21 O          24.9674   28.9427    3.0092 O.2       4 UNK        -0.5229 
     22 CA         23.9903   27.7662    1.1788 C.3       4 UNK         0.0329 
     23 CB         24.2829   28.6598   -0.0381 C.3       4 UNK        -0.2001 
     24 N          23.8610   26.3793    0.7320 N.am      4 UNK        -0.4303 
     25 C          23.4549   25.3531    1.4928 C.2       3 UNK         0.5044 
     26 O          22.9794   25.4895    2.6204 O.2       3 UNK        -0.5152 
     27 CA         23.6228   23.9312    0.9158 C.3       3 UNK         0.0319 
     28 CB         22.2492   23.3033    0.6250 C.3       3 UNK        -0.2001 
     29 N          24.4563   23.8256   -0.2921 N.am      3 UNK        -0.4354 
     30 C          25.7415   24.1896   -0.4065 C.2       2 UNK         0.4964 
     31 O          26.3856   24.7424    0.4909 O.2       2 UNK        -0.5047 
     32 CA         26.3876   23.9510   -1.7765 C.3       2 UNK         0.0288 
     33 CB         25.8655   24.9557   -2.8204 C.3       2 UNK        -0.2113 
     34 N          27.8313   24.0999   -1.6422 N.am      2 UNK        -0.4145 
     35 C          28.7610   23.4177   -2.3169 C.2       1 UNK         0.5006 
     36 O          28.4997   22.5771   -3.1833 O.2       1 UNK        -0.5103 
     37 C          28.0591   28.3178    3.2370 C.2       5 UNK         0.5055 
     38 O          28.5699   28.7905    4.2539 O.2       5 UNK        -0.5220 
     39 N          28.2293   28.8461    2.0163 N.am      6 UNK        -0.4450 
     40 CA         28.9221   30.1066    1.7366 C.3       6 UNK         0.0367 
     41 CB         28.1291   30.8666    0.6597 C.3       6 UNK        -0.1929 
     42 C          30.3840   29.9249    1.2929 C.2       6 UNK         0.5070 
     43 O          31.0833   30.9294    1.1453 O.2       6 UNK        -0.5237 
     44 N          30.8307   28.6795    1.0724 N.am      7 UNK        -0.4739 
     45 CA         32.1763   28.3480    0.5869 C.3       7 UNK         0.0276 
     46 CB         32.2914   26.8309    0.3856 C.3       7 UNK        -0.1927 
     47 C          33.2956   28.8538    1.5132 C.2       7 UNK         0.5013 
     48 O          33.1325   28.8356    2.7352 O.2       7 UNK        -0.5193 
     49 N          34.4006   29.3087    0.9031 N.am      8 UNK        -0.4253 
     50 CA         35.5704   29.9239    1.5469 C.3       8 UNK         0.0242 
     51 CB         36.3618   28.8718    2.3540 C.3       8 UNK        -0.2000 
     52 C          35.2070   31.1728    2.3777 C.2       8 UNK         0.4948 
     53 O          35.7225   31.3438    3.4834 O.2       8 UNK        -0.5275 
     54 N          34.2969   32.0005    1.8365 N.am      9 UNK        -0.4246 
     55 CA         33.6894   33.1824    2.4656 C.3       9 UNK         0.0261 
     56 CB         34.7307   34.3094    2.6383 C.3       9 UNK        -0.1959 
     57 C          32.9592   32.8252    3.7759 C.2       9 UNK         0.5033 
     58 O          33.1678   33.4780    4.8004 O.2       9 UNK        -0.5390 
     59 N          32.1390   31.7667    3.7044 N.am      10 UNK        -0.4215 
     60 CA         31.4471   31.0914    4.8069 C.3       10 UNK         0.0240 
     61 CB         30.3383   31.9894    5.3949 C.3       10 UNK        -0.1982 
     62 C          32.4297   30.5531    5.8660 C.2       10 UNK         0.4970 
     63 O          32.2607   30.8231    7.0569 O.2       10 UNK        -0.4916 
     64 N          33.4304   29.7919    5.3994 N.am      11 UNK        -0.4279 
     65 CA         34.4886   29.1545    6.2001 C.3       11 UNK         0.1003 
     66 C          35.3602   30.1822    6.9821 C.2       11 UNK         0.5709 
     67 N          35.8458   31.2266    6.3242 N.am      11 UNK        -0.7358 
     68 O          35.6108   30.0398    8.1775 O.2       11 UNK        -0.4999 
     69 C69        33.9492   27.9891    7.0819 C.3       12 UNK        -0.0954 
     70 S70        33.3802   26.5509    6.1126 S.3       12 UNK        -0.2268 
     71 C71        31.6750   27.0366    5.7038 C.3       12 UNK         0.0203 
     72 H72        33.1708   23.8217   -5.3281 H         1 UNK         0.0888 
     73 H73        32.7246   22.2347   -4.6990 H         1 UNK         0.0888 
     74 H74        31.8094   22.9433   -6.0309 H         1 UNK         0.0888 
     75 H75        31.5824   22.3392   -2.7789 H         1 UNK         0.3017 
     76 H76        30.3353   24.8018   -1.8821 H         1 UNK         0.0873 
     77 H77        31.6730   23.0861   -0.4240 H         1 UNK         0.0745 
     78 H78        30.2235   22.1127   -0.4164 H         1 UNK         0.0745 
     79 H79        31.8930   23.4953    2.0920 H         1 UNK         0.0705 
     80 H80        30.5585   22.3827    2.3187 H         1 UNK         0.0705 
     81 H81        32.1451   25.4504    3.5327 H         1 UNK         0.1334 
     82 H82        29.3319   26.0914    6.6977 H         1 UNK         0.1417 
     83 H83        28.5631   23.0935    3.7306 H         1 UNK         0.1562 
     84 H84        27.4026   24.6872    6.9296 H         1 UNK         0.0748 
     85 H85        27.2817   23.2148    5.9992 H         1 UNK         0.0748 
     86 H86        27.3884   26.9708    5.5208 H         1 UNK         0.0940 
     87 H87        25.7995   27.4143    5.0147 H         1 UNK         0.0940 
     88 H88        27.8154   26.2386    3.0314 H         1 UNK         0.0703 
     89 H89        26.0758   26.2949    1.6740 H         1 UNK         0.3081 
     90 H90        23.0336   28.0703    1.6087 H         1 UNK         0.0719 
     91 H91        25.2189   28.3862   -0.5268 H         1 UNK         0.0809 
     92 H92        23.4853   28.5960   -0.7786 H         1 UNK         0.0809 
     93 H93        24.3641   29.7071    0.2573 H         1 UNK         0.0809 
     94 H94        24.2198   26.1640   -0.1861 H         1 UNK         0.2990 
     95 H95        24.1100   23.3388    1.6930 H         1 UNK         0.0690 
     96 H96        22.3437   22.2597    0.3241 H         1 UNK         0.0788 
     97 H97        21.7222   23.8368   -0.1671 H         1 UNK         0.0788 
     98 H98        21.6123   23.3239    1.5108 H         1 UNK         0.0788 
     99 H99        24.0088   23.4084   -1.0961 H         1 UNK         0.2993 
    100 H100       26.1502   22.9319   -2.0903 H         1 UNK         0.0949 
    101 H101       26.3305   24.7905   -3.7927 H         1 UNK         0.0767 
    102 H102       24.7881   24.8611   -2.9606 H         1 UNK         0.0767 
    103 H103       26.0698   25.9859   -2.5253 H         1 UNK         0.0767 
    104 H104       28.1171   24.6733   -0.8562 H         1 UNK         0.3013 
    105 H105       27.7843   28.3903    1.2329 H         1 UNK         0.3121 
    106 H106       28.9375   30.7249    2.6367 H         1 UNK         0.0774 
    107 H107       28.5802   31.8383    0.4532 H         1 UNK         0.0815 
    108 H108       28.0945   30.3172   -0.2819 H         1 UNK         0.0815 
    109 H109       27.1032   31.0506    0.9797 H         1 UNK         0.0815 
    110 H110       30.2118   27.9063    1.2639 H         1 UNK         0.2987 
    111 H111       32.2914   28.8320   -0.3854 H         1 UNK         0.0949 
    112 H112       33.2810   26.5545    0.0190 H         1 UNK         0.0806 
    113 H113       32.1278   26.2902    1.3173 H         1 UNK         0.0806 
    114 H114       31.5674   26.4732   -0.3459 H         1 UNK         0.0806 
    115 H115       34.4343   29.2727   -0.1068 H         1 UNK         0.3010 
    116 H116       36.2191   30.2773    0.7440 H         1 UNK         0.0829 
    117 H117       36.6559   28.0313    1.7256 H         1 UNK         0.0813 
    118 H118       37.2754   29.2995    2.7688 H         1 UNK         0.0813 
    119 H119       35.7799   28.4770    3.1864 H         1 UNK         0.0813 
    120 H120       33.9160   31.7485    0.9346 H         1 UNK         0.3038 
    121 H121       32.9234   33.5422    1.7766 H         1 UNK         0.0769 
    122 H122       34.2596   35.2214    3.0068 H         1 UNK         0.0811 
    123 H123       35.2125   34.5533    1.6917 H         1 UNK         0.0811 
    124 H124       35.5096   34.0367    3.3511 H         1 UNK         0.0811 
    125 H125       32.0196   31.3349    2.7912 H         1 UNK         0.3204 
    126 H126       30.9627   30.2160    4.3724 H         1 UNK         0.0748 
    127 H127       29.7512   31.4445    6.1352 H         1 UNK         0.0771 
    128 H128       30.7475   32.8720    5.8874 H         1 UNK         0.0771 
    129 H129       29.6489   32.3252    4.6204 H         1 UNK         0.0771 
    130 H130       33.4568   29.5887    4.4024 H         1 UNK         0.2980 
    131 H131       35.1773   28.7114    5.4811 H         1 UNK         0.0545 
    132 H132       36.4083   31.9028    6.8136 H         1 UNK         0.3459 
    133 H133       35.6888   31.3257    5.3224 H         1 UNK         0.3459 
    134 H134       34.7395   27.6139    7.7341 H         1 UNK         0.0616 
    135 H135       33.1537   28.3293    7.7463 H         1 UNK         0.0616 
    136 H136       31.6925   27.8025    4.9293 H         1 UNK         0.0634 
    137 H137       31.2077   27.4871    6.5807 H         1 UNK         0.0634 
@<TRIPOS>BOND
     1    1    2 1    
     2    1   72 1    
     3    1   73 1    
     4    1   74 1    
     5    2    3 2    
     6    2    4 am   BACKBONE|DICT|INTERRES
     7    4    5 1    
     8    4   75 1    
     9    5    6 1    
    10    5   35 1    
    11    5   76 1    
    12    6    7 1    
    13    6   77 1    
    14    6   78 1    
    15    7    8 1    
    16    8    9 1    
    17    8   79 1    
    18    8   80 1    
    19    9   10 ar   
    20    9   14 ar   
    21   10   11 ar   
    22   10   81 1    
    23   11   12 ar   
    24   11   71 1    
    25   12   13 ar   
    26   12   82 1    
    27   13   14 ar   
    28   13   15 1    
    29   14   83 1    
    30   15   16 1    
    31   15   84 1    
    32   15   85 1    
    33   16   17 1    
    34   17   18 1    
    35   17   86 1    
    36   17   87 1    
    37   18   19 1    
    38   18   37 1    
    39   18   88 1    
    40   19   20 am   BACKBONE|DICT|INTERRES
    41   19   89 1    
    42   20   21 2    
    43   20   22 1    
    44   22   23 1    
    45   22   24 1    
    46   22   90 1    
    47   23   91 1    
    48   23   92 1    
    49   23   93 1    
    50   24   25 am   BACKBONE|DICT|INTERRES
    51   24   94 1    
    52   25   26 2    
    53   25   27 1    
    54   27   28 1    
    55   27   29 1    
    56   27   95 1    
    57   28   96 1    
    58   28   97 1    
    59   28   98 1    
    60   29   30 am   BACKBONE|DICT|INTERRES
    61   29   99 1    
    62   30   31 2    
    63   30   32 1    
    64   32   33 1    
    65   32   34 1    
    66   32  100 1    
    67   33  101 1    
    68   33  102 1    
    69   33  103 1    
    70   34   35 am   BACKBONE|DICT|INTERRES
    71   34  104 1    
    72   35   36 2    
    73   37   38 2    
    74   37   39 am   BACKBONE|DICT|INTERRES
    75   39   40 1    
    76   39  105 1    
    77   40   41 1    
    78   40   42 1    
    79   40  106 1    
    80   41  107 1    
    81   41  108 1    
    82   41  109 1    
    83   42   43 2    
    84   42   44 am   BACKBONE|DICT|INTERRES
    85   44   45 1    
    86   44  110 1    
    87   45   46 1    
    88   45   47 1    
    89   45  111 1    
    90   46  112 1    
    91   46  113 1    
    92   46  114 1    
    93   47   48 2    
    94   47   49 am   BACKBONE|DICT|INTERRES
    95   49   50 1    
    96   49  115 1    
    97   50   51 1    
    98   50   52 1    
    99   50  116 1    
   100   51  117 1    
   101   51  118 1    
   102   51  119 1    
   103   52   53 2    
   104   52   54 am   BACKBONE|DICT|INTERRES
   105   54   55 1    
   106   54  120 1    
   107   55   56 1    
   108   55   57 1    
   109   55  121 1    
   110   56  122 1    
   111   56  123 1    
   112   56  124 1    
   113   57   58 2    
   114   57   59 am   BACKBONE|DICT|INTERRES
   115   59   60 1    
   116   59  125 1    
   117   60   61 1    
   118   60   62 1    
   119   60  126 1    
   120   61  127 1    
   121   61  128 1    
   122   61  129 1    
   123   62   63 2    
   124   62   64 am   BACKBONE|DICT|INTERRES
   125   64   65 1    
   126   64  130 1    
   127   65   66 1    
   128   65   69 1    
   129   65  131 1    
   130   66   67 am   BACKBONE|DICT|INTERRES
   131   66   68 2    
   132   67  132 1    
   133   67  133 1    
   134   69   70 1    
   135   69  134 1    
   136   69  135 1    
   137   70   71 1    
   138   71  136 1    
   139   71  137 1    
@<TRIPOS>SUBSTRUCTURE
     1 UNK         1 GROUP             0       ****    0 ROOT    
