@<TRIPOS>MOLECULE
3R136
137   139    1
SMALL
USER_CHARGES


@<TRIPOS>ATOM
      1 CA         27.4741   21.6100    1.2599 C.3       0 UNK        -0.1979 
      2 C          27.7570   22.2198   -0.1032 C.2       0 UNK         0.4864 
      3 O          26.9056   22.1546   -0.9905 O.2       0 UNK        -0.5359 
      4 N          28.9386   22.8293   -0.2747 N.am      1 UNK        -0.4318 
      5 CA         29.4433   23.3758   -1.5463 C.3       1 UNK         0.0824 
      6 C6         30.9293   23.7957   -1.4462 C.3       12 UNK        -0.0944 
      7 S7         31.9802   22.4066   -0.9015 S.3       12 UNK        -0.2672 
      8 C8         33.2534   23.2540    0.0878 C.3       12 UNK         0.0333 
      9 C9         32.7094   23.9640    1.3245 C.ar      12 UNK        -0.0807 
     10 C10        33.0909   25.2843    1.5817 C.ar      12 UNK        -0.0894 
     11 C11        32.6719   25.9400    2.7427 C.ar      12 UNK        -0.0804 
     12 C12        31.8566   25.2554    3.6512 C.ar      12 UNK        -0.0824 
     13 C13        31.4418   23.9443    3.3984 C.ar      12 UNK        -0.0762 
     14 C14        31.8798   23.3003    2.2363 C.ar      12 UNK        -0.0782 
     15 C15        30.5680   23.2056    4.4062 C.3       12 UNK         0.0230 
     16 S16        28.7837   23.4382    4.1016 S.3       12 UNK        -0.2608 
     17 C17        28.4940   25.1272    4.7284 C.3       12 UNK        -0.0989 
     18 CA         27.9839   26.0667    3.6007 C.3       5 UNK         0.0716 
     19 N          26.5743   25.8534    3.2388 N.am      5 UNK        -0.4135 
     20 C          25.5026   26.0808    4.0161 C.2       4 UNK         0.5031 
     21 O          25.5689   26.4023    5.2031 O.2       4 UNK        -0.5229 
     22 CA         24.1101   25.9693    3.3666 C.3       4 UNK         0.0329 
     23 CB         23.3965   27.3325    3.3959 C.3       4 UNK        -0.2001 
     24 N          24.1437   25.4999    1.9801 N.am      4 UNK        -0.4303 
     25 C          24.1185   24.2227    1.5870 C.2       3 UNK         0.5044 
     26 O          24.1043   23.2676    2.3629 O.2       3 UNK        -0.5152 
     27 CA         24.1209   23.9667    0.0691 C.3       3 UNK         0.0319 
     28 CB         22.7670   24.3395   -0.5671 C.3       3 UNK        -0.2001 
     29 N          25.2471   24.5837   -0.6482 N.am      3 UNK        -0.4354 
     30 C          25.5297   25.8851   -0.8300 C.2       2 UNK         0.4964 
     31 O          24.8356   26.8022   -0.3889 O.2       2 UNK        -0.5047 
     32 CA         26.8301   26.2104   -1.5868 C.3       2 UNK         0.0288 
     33 CB         27.3485   27.6346   -1.3113 C.3       2 UNK        -0.2113 
     34 N          27.8658   25.2354   -1.2420 N.am      2 UNK        -0.4145 
     35 C          28.5862   24.5259   -2.1194 C.2       1 UNK         0.5006 
     36 O          28.5720   24.7205   -3.3360 O.2       1 UNK        -0.5103 
     37 C          28.2434   27.5625    3.8777 C.2       5 UNK         0.5055 
     38 O          28.6175   27.9454    4.9873 O.2       5 UNK        -0.5220 
     39 N          28.0311   28.3746    2.8356 N.am      6 UNK        -0.4450 
     40 CA         28.3402   29.8036    2.7808 C.3       6 UNK         0.0367 
     41 CB         27.0604   30.6209    3.0376 C.3       6 UNK        -0.1929 
     42 C          29.0070   30.1217    1.4312 C.2       6 UNK         0.5070 
     43 O          28.6820   31.1233    0.7934 O.2       6 UNK        -0.5237 
     44 N          29.9021   29.2234    0.9983 N.am      7 UNK        -0.4739 
     45 CA         30.5906   29.2684   -0.2928 C.3       7 UNK         0.0276 
     46 CB         31.0844   27.8513   -0.6333 C.3       7 UNK        -0.1927 
     47 C          31.7624   30.2646   -0.3391 C.2       7 UNK         0.5013 
     48 O          32.1685   30.6523   -1.4355 O.2       7 UNK        -0.5193 
     49 N          32.2995   30.6464    0.8254 N.am      8 UNK        -0.4253 
     50 CA         33.4486   31.5348    0.9742 C.3       8 UNK         0.0242 
     51 CB         34.7498   30.7311    0.7756 C.3       8 UNK        -0.2000 
     52 C          33.4147   32.1795    2.3633 C.2       8 UNK         0.4948 
     53 O          32.6750   31.7214    3.2363 O.2       8 UNK        -0.5275 
     54 N          34.2688   33.1923    2.5679 N.am      9 UNK        -0.4246 
     55 CA         34.4574   33.8986    3.8441 C.3       9 UNK         0.0261 
     56 CB         35.3823   35.1063    3.6180 C.3       9 UNK        -0.1959 
     57 C          34.9930   33.0159    4.9913 C.2       9 UNK         0.5033 
     58 O          34.8756   33.4024    6.1547 O.2       9 UNK        -0.5390 
     59 N          35.5519   31.8461    4.6509 N.am      10 UNK        -0.4215 
     60 CA         35.9530   30.7897    5.5822 C.3       10 UNK         0.0240 
     61 CB         36.8518   29.7896    4.8349 C.3       10 UNK        -0.1982 
     62 C          34.7652   30.0544    6.2378 C.2       10 UNK         0.4970 
     63 O          34.9824   29.3445    7.2209 O.2       10 UNK        -0.4916 
     64 N          33.5535   30.2171    5.6943 N.am      11 UNK        -0.4279 
     65 CA         32.3079   29.6147    6.1786 C.3       11 UNK         0.1003 
     66 C          31.1658   30.6702    6.2357 C.2       11 UNK         0.5709 
     67 N          29.9041   30.2812    6.1147 N.am      11 UNK        -0.7358 
     68 O          31.4091   31.8547    6.4611 O.2       11 UNK        -0.4999 
     69 C69        31.9850   28.2870    5.4371 C.3       12 UNK        -0.0954 
     70 S70        31.8371   28.4695    3.6236 S.3       12 UNK        -0.2268 
     71 C71        33.1508   27.3656    3.0127 C.3       12 UNK         0.0203 
     72 H72        26.8078   22.2549    1.8324 H         1 UNK         0.0888 
     73 H73        26.9929   20.6390    1.1457 H         1 UNK         0.0888 
     74 H74        28.3894   21.4635    1.8328 H         1 UNK         0.0888 
     75 H75        29.6002   22.8472    0.4883 H         1 UNK         0.3017 
     76 H76        29.3795   22.5654   -2.2760 H         1 UNK         0.0873 
     77 H77        31.0411   24.6369   -0.7599 H         1 UNK         0.0745 
     78 H78        31.3015   24.1375   -2.4141 H         1 UNK         0.0745 
     79 H79        33.9912   22.5175    0.4085 H         1 UNK         0.0705 
     80 H80        33.7822   23.9537   -0.5615 H         1 UNK         0.0705 
     81 H81        33.7408   25.7970    0.8854 H         1 UNK         0.1334 
     82 H82        31.5518   25.7410    4.5648 H         1 UNK         0.1417 
     83 H83        31.5928   22.2741    2.0504 H         1 UNK         0.1562 
     84 H84        30.8114   23.5182    5.4230 H         1 UNK         0.0748 
     85 H85        30.7868   22.1375    4.3651 H         1 UNK         0.0748 
     86 H86        29.4184   25.5012    5.1668 H         1 UNK         0.0940 
     87 H87        27.7878   25.0812    5.5578 H         1 UNK         0.0940 
     88 H88        28.5690   25.8424    2.7066 H         1 UNK         0.0703 
     89 H89        26.3956   25.5721    2.2881 H         1 UNK         0.3081 
     90 H90        23.5280   25.2673    3.9676 H         1 UNK         0.0719 
     91 H91        23.3022   27.7062    4.4165 H         1 UNK         0.0809 
     92 H92        23.9401   28.0847    2.8222 H         1 UNK         0.0809 
     93 H93        22.3888   27.2614    2.9861 H         1 UNK         0.0809 
     94 H94        24.1944   26.2069    1.2489 H         1 UNK         0.2990 
     95 H95        24.2508   22.8909   -0.0618 H         1 UNK         0.0690 
     96 H96        22.7404   24.0708   -1.6231 H         1 UNK         0.0788 
     97 H97        22.5522   25.4055   -0.4885 H         1 UNK         0.0788 
     98 H98        21.9492   23.8088   -0.0778 H         1 UNK         0.0788 
     99 H99        25.8978   23.9040   -1.0329 H         1 UNK         0.2993 
    100 H100       26.5819   26.1391   -2.6481 H         1 UNK         0.0949 
    101 H101       27.6110   27.7737   -0.2634 H         1 UNK         0.0767 
    102 H102       28.2314   27.8510   -1.9123 H         1 UNK         0.0767 
    103 H103       26.5993   28.3856   -1.5654 H         1 UNK         0.0767 
    104 H104       27.9470   24.9894   -0.2665 H         1 UNK         0.3013 
    105 H105       27.7024   27.9749    1.9689 H         1 UNK         0.3121 
    106 H106       29.0739   30.0571    3.5470 H         1 UNK         0.0774 
    107 H107       26.3039   30.4334    2.2748 H         1 UNK         0.0815 
    108 H108       26.6263   30.3784    4.0077 H         1 UNK         0.0815 
    109 H109       27.2720   31.6908    3.0360 H         1 UNK         0.0815 
    110 H110       30.1509   28.4631    1.6160 H         1 UNK         0.2987 
    111 H111       29.8735   29.5769   -1.0567 H         1 UNK         0.0949 
    112 H112       30.2653   27.1331   -0.6470 H         1 UNK         0.0806 
    113 H113       31.5514   27.8265   -1.6188 H         1 UNK         0.0806 
    114 H114       31.8244   27.5002    0.0860 H         1 UNK         0.0806 
    115 H115       31.8867   30.3391    1.6985 H         1 UNK         0.3010 
    116 H116       33.3866   32.3314    0.2295 H         1 UNK         0.0829 
    117 H117       34.8508   29.9400    1.5198 H         1 UNK         0.0813 
    118 H118       35.6302   31.3697    0.8531 H         1 UNK         0.0813 
    119 H119       34.7829   30.2652   -0.2094 H         1 UNK         0.0813 
    120 H120       34.8435   33.5028    1.7969 H         1 UNK         0.3038 
    121 H121       33.4802   34.2698    4.1607 H         1 UNK         0.0769 
    122 H122       34.9688   35.7913    2.8775 H         1 UNK         0.0811 
    123 H123       36.3723   34.7992    3.2784 H         1 UNK         0.0811 
    124 H124       35.5164   35.6739    4.5400 H         1 UNK         0.0811 
    125 H125       35.6221   31.6306    3.6680 H         1 UNK         0.3204 
    126 H126       36.5365   31.2462    6.3845 H         1 UNK         0.0748 
    127 H127       36.3195   29.3004    4.0178 H         1 UNK         0.0771 
    128 H128       37.7323   30.2797    4.4186 H         1 UNK         0.0771 
    129 H129       37.2076   29.0063    5.5059 H         1 UNK         0.0771 
    130 H130       33.4297   30.8412    4.9032 H         1 UNK         0.2980 
    131 H131       32.4467   29.3539    7.2290 H         1 UNK         0.0545 
    132 H132       29.6541   29.3272    5.8706 H         1 UNK         0.3459 
    133 H133       29.1790   30.9748    6.1937 H         1 UNK         0.3459 
    134 H134       31.0724   27.8375    5.8269 H         1 UNK         0.0616 
    135 H135       32.7694   27.5635    5.6615 H         1 UNK         0.0616 
    136 H136       33.9868   27.3470    3.7127 H         1 UNK         0.0634 
    137 H137       33.5377   27.8069    2.0931 H         1 UNK         0.0634 
@<TRIPOS>BOND
     1    1    2 1    
     2    1   72 1    
     3    1   73 1    
     4    1   74 1    
     5    2    3 2    
     6    2    4 am   BACKBONE|DICT|INTERRES
     7    4    5 1    
     8    4   75 1    
     9    5    6 1    
    10    5   35 1    
    11    5   76 1    
    12    6    7 1    
    13    6   77 1    
    14    6   78 1    
    15    7    8 1    
    16    8    9 1    
    17    8   79 1    
    18    8   80 1    
    19    9   10 ar   
    20    9   14 ar   
    21   10   11 ar   
    22   10   81 1    
    23   11   12 ar   
    24   11   71 1    
    25   12   13 ar   
    26   12   82 1    
    27   13   14 ar   
    28   13   15 1    
    29   14   83 1    
    30   15   16 1    
    31   15   84 1    
    32   15   85 1    
    33   16   17 1    
    34   17   18 1    
    35   17   86 1    
    36   17   87 1    
    37   18   19 1    
    38   18   37 1    
    39   18   88 1    
    40   19   20 am   BACKBONE|DICT|INTERRES
    41   19   89 1    
    42   20   21 2    
    43   20   22 1    
    44   22   23 1    
    45   22   24 1    
    46   22   90 1    
    47   23   91 1    
    48   23   92 1    
    49   23   93 1    
    50   24   25 am   BACKBONE|DICT|INTERRES
    51   24   94 1    
    52   25   26 2    
    53   25   27 1    
    54   27   28 1    
    55   27   29 1    
    56   27   95 1    
    57   28   96 1    
    58   28   97 1    
    59   28   98 1    
    60   29   30 am   BACKBONE|DICT|INTERRES
    61   29   99 1    
    62   30   31 2    
    63   30   32 1    
    64   32   33 1    
    65   32   34 1    
    66   32  100 1    
    67   33  101 1    
    68   33  102 1    
    69   33  103 1    
    70   34   35 am   BACKBONE|DICT|INTERRES
    71   34  104 1    
    72   35   36 2    
    73   37   38 2    
    74   37   39 am   BACKBONE|DICT|INTERRES
    75   39   40 1    
    76   39  105 1    
    77   40   41 1    
    78   40   42 1    
    79   40  106 1    
    80   41  107 1    
    81   41  108 1    
    82   41  109 1    
    83   42   43 2    
    84   42   44 am   BACKBONE|DICT|INTERRES
    85   44   45 1    
    86   44  110 1    
    87   45   46 1    
    88   45   47 1    
    89   45  111 1    
    90   46  112 1    
    91   46  113 1    
    92   46  114 1    
    93   47   48 2    
    94   47   49 am   BACKBONE|DICT|INTERRES
    95   49   50 1    
    96   49  115 1    
    97   50   51 1    
    98   50   52 1    
    99   50  116 1    
   100   51  117 1    
   101   51  118 1    
   102   51  119 1    
   103   52   53 2    
   104   52   54 am   BACKBONE|DICT|INTERRES
   105   54   55 1    
   106   54  120 1    
   107   55   56 1    
   108   55   57 1    
   109   55  121 1    
   110   56  122 1    
   111   56  123 1    
   112   56  124 1    
   113   57   58 2    
   114   57   59 am   BACKBONE|DICT|INTERRES
   115   59   60 1    
   116   59  125 1    
   117   60   61 1    
   118   60   62 1    
   119   60  126 1    
   120   61  127 1    
   121   61  128 1    
   122   61  129 1    
   123   62   63 2    
   124   62   64 am   BACKBONE|DICT|INTERRES
   125   64   65 1    
   126   64  130 1    
   127   65   66 1    
   128   65   69 1    
   129   65  131 1    
   130   66   67 am   BACKBONE|DICT|INTERRES
   131   66   68 2    
   132   67  132 1    
   133   67  133 1    
   134   69   70 1    
   135   69  134 1    
   136   69  135 1    
   137   70   71 1    
   138   71  136 1    
   139   71  137 1    
@<TRIPOS>SUBSTRUCTURE
     1 UNK         1 GROUP             0       ****    0 ROOT    
