@<TRIPOS>MOLECULE
3R136
137   139    1
SMALL
USER_CHARGES


@<TRIPOS>ATOM
      1 CA         26.4650   21.1632    0.8009 C.3       0 UNK        -0.1979 
      2 C          27.7259   21.8277    0.2689 C.2       0 UNK         0.4864 
      3 O          28.8304   21.4315    0.6429 O.2       0 UNK        -0.5359 
      4 N          27.5684   22.8342   -0.5955 N.am      1 UNK        -0.4318 
      5 CA         28.6428   23.6014   -1.2209 C.3       1 UNK         0.0824 
      6 C6         29.2961   24.6062   -0.2259 C.3       12 UNK        -0.0944 
      7 S7         31.0256   24.9813   -0.6575 S.3       12 UNK        -0.2672 
      8 C8         31.8935   23.6121    0.1695 C.3       12 UNK         0.0333 
      9 C9         32.1534   23.8964    1.6418 C.ar      12 UNK        -0.0807 
     10 C10        33.2718   24.6481    2.0128 C.ar      12 UNK        -0.0894 
     11 C11        33.5713   24.8594    3.3611 C.ar      12 UNK        -0.0804 
     12 C12        32.7350   24.3219    4.3426 C.ar      12 UNK        -0.0824 
     13 C13        31.6044   23.5798    3.9857 C.ar      12 UNK        -0.0762 
     14 C14        31.3169   23.3698    2.6326 C.ar      12 UNK        -0.0782 
     15 C15        30.7360   22.9619    5.0718 C.3       12 UNK         0.0230 
     16 S16        29.8469   24.2238    6.0378 S.3       12 UNK        -0.2608 
     17 C17        28.3312   24.4906    5.0536 C.3       12 UNK        -0.0989 
     18 CA         28.3073   25.8120    4.2453 C.3       5 UNK         0.0716 
     19 N          27.0682   25.9159    3.4699 N.am      5 UNK        -0.4135 
     20 C          26.7841   26.8909    2.5980 C.2       4 UNK         0.5031 
     21 O          27.5884   27.7665    2.2571 O.2       4 UNK        -0.5229 
     22 CA         25.3411   26.9112    2.0614 C.3       4 UNK         0.0329 
     23 CB         24.3999   27.6412    3.0339 C.3       4 UNK        -0.2001 
     24 N          25.2797   27.5493    0.7455 N.am      4 UNK        -0.4303 
     25 C          25.6740   26.9353   -0.3752 C.2       3 UNK         0.5044 
     26 O          25.9706   25.7383   -0.4122 O.2       3 UNK        -0.5152 
     27 CA         25.7992   27.7776   -1.6575 C.3       3 UNK         0.0319 
     28 CB         25.9709   29.2906   -1.4079 C.3       3 UNK        -0.2001 
     29 N          26.9596   27.2557   -2.3676 N.am      3 UNK        -0.4354 
     30 C          27.0732   27.0156   -3.6765 C.2       2 UNK         0.4964 
     31 O          26.2720   27.4062   -4.5261 O.2       2 UNK        -0.5047 
     32 CA         28.2858   26.1579   -4.0977 C.3       2 UNK         0.0288 
     33 CB         29.4385   27.0531   -4.5807 C.3       2 UNK        -0.2113 
     34 N          28.7712   25.2846   -3.0173 N.am      2 UNK        -0.4145 
     35 C          28.0832   24.2531   -2.5037 C.2       1 UNK         0.5006 
     36 O          27.0299   23.8338   -2.9937 O.2       1 UNK        -0.5103 
     37 C          28.4584   27.0639    5.1385 C.2       5 UNK         0.5055 
     38 O          27.5098   27.4236    5.8400 O.2       5 UNK        -0.5220 
     39 N          29.6265   27.7147    5.0487 N.am      6 UNK        -0.4450 
     40 CA         29.9866   28.9907    5.6826 C.3       6 UNK         0.0367 
     41 CB         29.8955   28.9123    7.2216 C.3       6 UNK        -0.1929 
     42 C          29.2629   30.2272    5.1040 C.2       6 UNK         0.5070 
     43 O          29.4067   31.3143    5.6656 O.2       6 UNK        -0.5237 
     44 N          28.5395   30.0683    3.9855 N.am      7 UNK        -0.4739 
     45 CA         27.9877   31.1662    3.1843 C.3       7 UNK         0.0276 
     46 CB         26.4755   30.9731    2.9976 C.3       7 UNK        -0.1927 
     47 C          28.6862   31.2389    1.8188 C.2       7 UNK         0.5013 
     48 O          28.9379   32.3410    1.3314 O.2       7 UNK        -0.5193 
     49 N          29.0026   30.0715    1.2349 N.am      8 UNK        -0.4253 
     50 CA         29.7289   29.9202   -0.0319 C.3       8 UNK         0.0242 
     51 CB         29.7547   28.4300   -0.4035 C.3       8 UNK        -0.2000 
     52 C          31.1658   30.4743    0.0009 C.2       8 UNK         0.4948 
     53 O          31.6732   30.9135   -1.0318 O.2       8 UNK        -0.5275 
     54 N          31.7835   30.4439    1.1839 N.am      9 UNK        -0.4246 
     55 CA         33.1020   30.9692    1.5104 C.3       9 UNK         0.0261 
     56 CB         34.1929   29.9864    1.0462 C.3       9 UNK        -0.1959 
     57 C          33.1329   31.1797    3.0289 C.2       9 UNK         0.5033 
     58 O          32.2565   30.6631    3.7295 O.2       9 UNK        -0.5390 
     59 N          34.1358   31.9154    3.5246 N.am      10 UNK        -0.4215 
     60 CA         34.3233   32.2583    4.9417 C.3       10 UNK         0.0240 
     61 CB         35.2542   33.4823    5.0373 C.3       10 UNK        -0.1982 
     62 C          34.8141   31.0703    5.8002 C.2       10 UNK         0.4970 
     63 O          35.8382   31.1748    6.4777 O.2       10 UNK        -0.4916 
     64 N          34.0758   29.9589    5.7434 N.am      11 UNK        -0.4279 
     65 CA         34.3573   28.6939    6.4392 C.3       11 UNK         0.1003 
     66 C          33.9051   28.6659    7.9282 C.2       11 UNK         0.5709 
     67 N          33.2331   29.6891    8.4429 N.am      11 UNK        -0.7358 
     68 O          34.1823   27.7005    8.6358 O.2       11 UNK        -0.4999 
     69 C69        33.7935   27.4816    5.6505 C.3       12 UNK        -0.0954 
     70 S70        34.4498   27.4110    3.9483 S.3       12 UNK        -0.2268 
     71 C71        34.8154   25.6429    3.7500 C.3       12 UNK         0.0203 
     72 H72        26.4526   20.1085    0.5274 H         1 UNK         0.0888 
     73 H73        26.4338   21.2348    1.8878 H         1 UNK         0.0888 
     74 H74        25.5621   21.6279    0.4047 H         1 UNK         0.0888 
     75 H75        26.6448   23.1067   -0.9112 H         1 UNK         0.3017 
     76 H76        29.3943   22.8820   -1.5532 H         1 UNK         0.0873 
     77 H77        28.7267   25.5342   -0.1618 H         1 UNK         0.0745 
     78 H78        29.2870   24.2086    0.7888 H         1 UNK         0.0745 
     79 H79        32.8445   23.4481   -0.3395 H         1 UNK         0.0705 
     80 H80        31.3282   22.6864    0.0506 H         1 UNK         0.0705 
     81 H81        33.9204   25.0550    1.2488 H         1 UNK         0.1334 
     82 H82        32.9661   24.4731    5.3882 H         1 UNK         0.1417 
     83 H83        30.4586   22.7749    2.3494 H         1 UNK         0.1562 
     84 H84        31.3776   22.3984    5.7509 H         1 UNK         0.0748 
     85 H85        30.0333   22.2379    4.6566 H         1 UNK         0.0748 
     86 H86        27.4850   24.4586    5.7429 H         1 UNK         0.0940 
     87 H87        28.1910   23.6453    4.3781 H         1 UNK         0.0940 
     88 H88        29.1330   25.7863    3.5301 H         1 UNK         0.0703 
     89 H89        26.3366   25.2667    3.7176 H         1 UNK         0.3081 
     90 H90        24.9931   25.8797    1.9682 H         1 UNK         0.0719 
     91 H91        24.6831   28.6818    3.1819 H         1 UNK         0.0809 
     92 H92        23.3708   27.6239    2.6746 H         1 UNK         0.0809 
     93 H93        24.4052   27.1651    4.0154 H         1 UNK         0.0809 
     94 H94        25.0872   28.5392    0.7212 H         1 UNK         0.2990 
     95 H95        24.8975   27.6083   -2.2495 H         1 UNK         0.0690 
     96 H96        26.1800   29.8193   -2.3381 H         1 UNK         0.0788 
     97 H97        26.7885   29.5015   -0.7184 H         1 UNK         0.0788 
     98 H98        25.0630   29.7293   -0.9927 H         1 UNK         0.0788 
     99 H99        27.6410   26.8164   -1.7668 H         1 UNK         0.2993 
    100 H100       27.9663   25.5252   -4.9287 H         1 UNK         0.0949 
    101 H101       29.8039   27.7070   -3.7882 H         1 UNK         0.0767 
    102 H102       30.2786   26.4587   -4.9407 H         1 UNK         0.0767 
    103 H103       29.1169   27.6902   -5.4059 H         1 UNK         0.0767 
    104 H104       29.6462   25.5383   -2.5760 H         1 UNK         0.3013 
    105 H105       30.3322   27.3286    4.4363 H         1 UNK         0.3121 
    106 H106       31.0374   29.1436    5.4418 H         1 UNK         0.0774 
    107 H107       30.3271   29.8010    7.6831 H         1 UNK         0.0815 
    108 H108       28.8643   28.8416    7.5672 H         1 UNK         0.0815 
    109 H109       30.4421   28.0522    7.6082 H         1 UNK         0.0815 
    110 H110       28.4283   29.1355    3.6066 H         1 UNK         0.2987 
    111 H111       28.1469   32.1230    3.6864 H         1 UNK         0.0949 
    112 H112       26.0313   31.8464    2.5182 H         1 UNK         0.0806 
    113 H113       26.2562   30.1140    2.3654 H         1 UNK         0.0806 
    114 H114       25.9698   30.8329    3.9530 H         1 UNK         0.0806 
    115 H115       28.6675   29.2128    1.6634 H         1 UNK         0.3010 
    116 H116       29.1777   30.4655   -0.8006 H         1 UNK         0.0829 
    117 H117       28.7512   28.0111   -0.4256 H         1 UNK         0.0813 
    118 H118       30.2012   28.2777   -1.3866 H         1 UNK         0.0813 
    119 H119       30.3365   27.8490    0.3136 H         1 UNK         0.0813 
    120 H120       31.2766   30.1171    1.9984 H         1 UNK         0.3038 
    121 H121       33.2358   31.9370    1.0227 H         1 UNK         0.0769 
    122 H122       34.0448   28.9940    1.4721 H         1 UNK         0.0811 
    123 H123       35.1871   30.3249    1.3394 H         1 UNK         0.0811 
    124 H124       34.1953   29.8826   -0.0389 H         1 UNK         0.0811 
    125 H125       34.8336   32.2692    2.8856 H         1 UNK         0.3204 
    126 H126       33.3532   32.5541    5.3476 H         1 UNK         0.0748 
    127 H127       35.3729   33.8052    6.0727 H         1 UNK         0.0771 
    128 H128       36.2492   33.2647    4.6468 H         1 UNK         0.0771 
    129 H129       34.8532   34.3308    4.4823 H         1 UNK         0.0771 
    130 H130       33.2684   29.9703    5.1259 H         1 UNK         0.2980 
    131 H131       35.4420   28.5750    6.4701 H         1 UNK         0.0545 
    132 H132       33.0141   30.4927    7.8776 H         1 UNK         0.3459 
    133 H133       32.9564   29.6595    9.4112 H         1 UNK         0.3459 
    134 H134       32.7053   27.5169    5.6011 H         1 UNK         0.0616 
    135 H135       34.0431   26.5529    6.1656 H         1 UNK         0.0616 
    136 H136       35.2569   25.2411    4.6631 H         1 UNK         0.0634 
    137 H137       35.5764   25.5332    2.9759 H         1 UNK         0.0634 
@<TRIPOS>BOND
     1    1    2 1    
     2    1   72 1    
     3    1   73 1    
     4    1   74 1    
     5    2    3 2    
     6    2    4 am   BACKBONE|DICT|INTERRES
     7    4    5 1    
     8    4   75 1    
     9    5    6 1    
    10    5   35 1    
    11    5   76 1    
    12    6    7 1    
    13    6   77 1    
    14    6   78 1    
    15    7    8 1    
    16    8    9 1    
    17    8   79 1    
    18    8   80 1    
    19    9   10 ar   
    20    9   14 ar   
    21   10   11 ar   
    22   10   81 1    
    23   11   12 ar   
    24   11   71 1    
    25   12   13 ar   
    26   12   82 1    
    27   13   14 ar   
    28   13   15 1    
    29   14   83 1    
    30   15   16 1    
    31   15   84 1    
    32   15   85 1    
    33   16   17 1    
    34   17   18 1    
    35   17   86 1    
    36   17   87 1    
    37   18   19 1    
    38   18   37 1    
    39   18   88 1    
    40   19   20 am   BACKBONE|DICT|INTERRES
    41   19   89 1    
    42   20   21 2    
    43   20   22 1    
    44   22   23 1    
    45   22   24 1    
    46   22   90 1    
    47   23   91 1    
    48   23   92 1    
    49   23   93 1    
    50   24   25 am   BACKBONE|DICT|INTERRES
    51   24   94 1    
    52   25   26 2    
    53   25   27 1    
    54   27   28 1    
    55   27   29 1    
    56   27   95 1    
    57   28   96 1    
    58   28   97 1    
    59   28   98 1    
    60   29   30 am   BACKBONE|DICT|INTERRES
    61   29   99 1    
    62   30   31 2    
    63   30   32 1    
    64   32   33 1    
    65   32   34 1    
    66   32  100 1    
    67   33  101 1    
    68   33  102 1    
    69   33  103 1    
    70   34   35 am   BACKBONE|DICT|INTERRES
    71   34  104 1    
    72   35   36 2    
    73   37   38 2    
    74   37   39 am   BACKBONE|DICT|INTERRES
    75   39   40 1    
    76   39  105 1    
    77   40   41 1    
    78   40   42 1    
    79   40  106 1    
    80   41  107 1    
    81   41  108 1    
    82   41  109 1    
    83   42   43 2    
    84   42   44 am   BACKBONE|DICT|INTERRES
    85   44   45 1    
    86   44  110 1    
    87   45   46 1    
    88   45   47 1    
    89   45  111 1    
    90   46  112 1    
    91   46  113 1    
    92   46  114 1    
    93   47   48 2    
    94   47   49 am   BACKBONE|DICT|INTERRES
    95   49   50 1    
    96   49  115 1    
    97   50   51 1    
    98   50   52 1    
    99   50  116 1    
   100   51  117 1    
   101   51  118 1    
   102   51  119 1    
   103   52   53 2    
   104   52   54 am   BACKBONE|DICT|INTERRES
   105   54   55 1    
   106   54  120 1    
   107   55   56 1    
   108   55   57 1    
   109   55  121 1    
   110   56  122 1    
   111   56  123 1    
   112   56  124 1    
   113   57   58 2    
   114   57   59 am   BACKBONE|DICT|INTERRES
   115   59   60 1    
   116   59  125 1    
   117   60   61 1    
   118   60   62 1    
   119   60  126 1    
   120   61  127 1    
   121   61  128 1    
   122   61  129 1    
   123   62   63 2    
   124   62   64 am   BACKBONE|DICT|INTERRES
   125   64   65 1    
   126   64  130 1    
   127   65   66 1    
   128   65   69 1    
   129   65  131 1    
   130   66   67 am   BACKBONE|DICT|INTERRES
   131   66   68 2    
   132   67  132 1    
   133   67  133 1    
   134   69   70 1    
   135   69  134 1    
   136   69  135 1    
   137   70   71 1    
   138   71  136 1    
   139   71  137 1    
@<TRIPOS>SUBSTRUCTURE
     1 UNK         1 GROUP             0       ****    0 ROOT    
