@<TRIPOS>MOLECULE
3R136
137   139    1
SMALL
USER_CHARGES


@<TRIPOS>ATOM
      1 CA         35.5740   26.4567   -1.9549 C.3       0 UNK        -0.1979 
      2 C          34.1647   26.3264   -1.3969 C.2       0 UNK         0.4864 
      3 O          33.4971   27.3402   -1.1923 O.2       0 UNK        -0.5359 
      4 N          33.7125   25.0890   -1.1440 N.am      1 UNK        -0.4318 
      5 CA         32.3807   24.7764   -0.6156 C.3       1 UNK         0.0824 
      6 C6         32.2658   23.2860   -0.2064 C.3       12 UNK        -0.0944 
      7 S7         30.8201   22.9773    0.8649 S.3       12 UNK        -0.2672 
      8 C8         31.5557   23.0311    2.5321 C.3       12 UNK         0.0333 
      9 C9         30.5588   23.4940    3.5909 C.ar      12 UNK        -0.0807 
     10 C10        30.9264   24.4873    4.5035 C.ar      12 UNK        -0.0894 
     11 C11        30.0250   24.9381    5.4718 C.ar      12 UNK        -0.0804 
     12 C12        28.7479   24.3757    5.5381 C.ar      12 UNK        -0.0824 
     13 C13        28.3634   23.3823    4.6311 C.ar      12 UNK        -0.0762 
     14 C14        29.2761   22.9384    3.6693 C.ar      12 UNK        -0.0782 
     15 C15        26.9616   22.7899    4.6800 C.3       12 UNK         0.0230 
     16 S16        25.8216   23.6466    3.5426 S.3       12 UNK        -0.2608 
     17 C17        25.6234   25.2578    4.3756 C.3       12 UNK        -0.0989 
     18 CA         26.4104   26.3891    3.6526 C.3       5 UNK         0.0716 
     19 N          25.8522   26.7102    2.3292 N.am      5 UNK        -0.4135 
     20 C          24.6656   27.2964    2.0878 C.2       4 UNK         0.5031 
     21 O          23.8947   27.6802    2.9681 O.2       4 UNK        -0.5229 
     22 CA         24.2642   27.5140    0.6164 C.3       4 UNK         0.0329 
     23 CB         24.6398   28.9366    0.1684 C.3       4 UNK        -0.2001 
     24 N          24.8680   26.5486   -0.3017 N.am      4 UNK        -0.4303 
     25 C          24.6152   25.2322   -0.3144 C.2       3 UNK         0.5044 
     26 O          23.7359   24.7000    0.3638 O.2       3 UNK        -0.5152 
     27 CA         25.4946   24.3537   -1.2266 C.3       3 UNK         0.0319 
     28 CB         24.6781   23.8329   -2.4213 C.3       3 UNK        -0.2001 
     29 N          26.7147   25.0003   -1.7306 N.am      3 UNK        -0.4354 
     30 C          27.7321   25.4465   -0.9810 C.2       2 UNK         0.4964 
     31 O          27.7339   25.4547    0.2533 O.2       2 UNK        -0.5047 
     32 CA         28.9221   26.0406   -1.7384 C.3       2 UNK         0.0288 
     33 CB         28.8167   27.5743   -1.7962 C.3       2 UNK        -0.2113 
     34 N          30.1373   25.6663   -1.0271 N.am      2 UNK        -0.4145 
     35 C          31.2580   25.2009   -1.5902 C.2       1 UNK         0.5006 
     36 O          31.4187   25.0726   -2.8077 O.2       1 UNK        -0.5103 
     37 C          26.6179   27.6400    4.5431 C.2       5 UNK         0.5055 
     38 O          26.5098   27.5480    5.7679 O.2       5 UNK        -0.5220 
     39 N          26.9122   28.7896    3.9191 N.am      6 UNK        -0.4450 
     40 CA         27.1233   30.0744    4.5920 C.3       6 UNK         0.0367 
     41 CB         25.7616   30.7099    4.9441 C.3       6 UNK        -0.1929 
     42 C          28.0074   31.0277    3.7675 C.2       6 UNK         0.5070 
     43 O          28.0031   32.2311    4.0321 O.2       6 UNK        -0.5237 
     44 N          28.7368   30.5020    2.7729 N.am      7 UNK        -0.4739 
     45 CA         29.6500   31.2822    1.9349 C.3       7 UNK         0.0276 
     46 CB         29.8428   30.5629    0.5897 C.3       7 UNK        -0.1927 
     47 C          30.9980   31.4667    2.6447 C.2       7 UNK         0.5013 
     48 O          31.4648   30.5347    3.3026 O.2       7 UNK        -0.5193 
     49 N          31.6310   32.6326    2.4576 N.am      8 UNK        -0.4253 
     50 CA         32.9242   32.9808    3.0615 C.3       8 UNK         0.0242 
     51 CB         33.2704   34.4426    2.7356 C.3       8 UNK        -0.2000 
     52 C          34.0742   32.0463    2.6462 C.2       8 UNK         0.4948 
     53 O          34.9184   31.7191    3.4797 O.2       8 UNK        -0.5275 
     54 N          34.0622   31.5975    1.3833 N.am      9 UNK        -0.4246 
     55 CA         35.0069   30.6122    0.8490 C.3       9 UNK         0.0261 
     56 CB         34.9126   30.6012   -0.6856 C.3       9 UNK        -0.1959 
     57 C          34.7890   29.1927    1.4065 C.2       9 UNK         0.5033 
     58 O          35.7385   28.4079    1.4303 O.2       9 UNK        -0.5390 
     59 N          33.5554   28.8886    1.8316 N.am      10 UNK        -0.4215 
     60 CA         33.1601   27.5919    2.3714 C.3       10 UNK         0.0240 
     61 CB         31.6708   27.3421    2.0651 C.3       10 UNK        -0.1982 
     62 C          33.4220   27.5188    3.8798 C.2       10 UNK         0.4970 
     63 O          34.0251   26.5482    4.3387 O.2       10 UNK        -0.4916 
     64 N          32.9332   28.5249    4.6149 N.am      11 UNK        -0.4279 
     65 CA         32.8316   28.5132    6.0818 C.3       11 UNK         0.1003 
     66 C          33.7965   29.4979    6.7968 C.2       11 UNK         0.5709 
     67 N          34.5719   30.3155    6.0959 N.am      11 UNK        -0.7358 
     68 O          33.8603   29.5073    8.0241 O.2       11 UNK        -0.4999 
     69 C69        31.3626   28.7158    6.5545 C.3       12 UNK        -0.0954 
     70 S70        30.1513   27.6736    5.6703 S.3       12 UNK        -0.2268 
     71 C71        30.4331   26.0462    6.4294 C.3       12 UNK         0.0203 
     72 H72        36.1886   27.0480   -1.2761 H         1 UNK         0.0888 
     73 H73        36.0522   25.4866   -2.0890 H         1 UNK         0.0888 
     74 H74        35.5496   26.9610   -2.9204 H         1 UNK         0.0888 
     75 H75        34.2953   24.2950   -1.3665 H         1 UNK         0.3017 
     76 H76        32.2804   25.3717    0.2905 H         1 UNK         0.0873 
     77 H77        32.1950   22.6451   -1.0875 H         1 UNK         0.0745 
     78 H78        33.1641   22.9650    0.3237 H         1 UNK         0.0745 
     79 H79        31.9283   22.0400    2.7934 H         1 UNK         0.0705 
     80 H80        32.4201   23.6972    2.5182 H         1 UNK         0.0705 
     81 H81        31.9142   24.9236    4.4560 H         1 UNK         0.1334 
     82 H82        28.0503   24.7273    6.2855 H         1 UNK         0.1417 
     83 H83        28.9796   22.1716    2.9665 H         1 UNK         0.1562 
     84 H84        26.5649   22.8222    5.6960 H         1 UNK         0.0748 
     85 H85        27.0002   21.7344    4.4064 H         1 UNK         0.0748 
     86 H86        25.9364   25.1445    5.4135 H         1 UNK         0.0940 
     87 H87        24.5604   25.4976    4.4241 H         1 UNK         0.0940 
     88 H88        27.4197   26.0198    3.4624 H         1 UNK         0.0703 
     89 H89        26.4065   26.3893    1.5414 H         1 UNK         0.3081 
     90 H90        23.1793   27.4065    0.5518 H         1 UNK         0.0719 
     91 H91        25.7187   29.0965    0.1842 H         1 UNK         0.0809 
     92 H92        24.2845   29.1411   -0.8418 H         1 UNK         0.0809 
     93 H93        24.1900   29.6837    0.8242 H         1 UNK         0.0809 
     94 H94        25.5933   26.8924   -0.9130 H         1 UNK         0.2990 
     95 H95        25.8067   23.4960   -0.6268 H         1 UNK         0.0690 
     96 H96        25.2539   23.1262   -3.0194 H         1 UNK         0.0788 
     97 H97        24.3565   24.6450   -3.0746 H         1 UNK         0.0788 
     98 H98        23.7808   23.3109   -2.0853 H         1 UNK         0.0788 
     99 H99        26.7932   25.0677   -2.7358 H         1 UNK         0.2993 
    100 H100       28.9365   25.6370   -2.7535 H         1 UNK         0.0949 
    101 H101       27.9275   27.8871   -2.3447 H         1 UNK         0.0767 
    102 H102       28.7585   28.0112   -0.7986 H         1 UNK         0.0767 
    103 H103       29.6796   28.0103   -2.3004 H         1 UNK         0.0767 
    104 H104       30.0356   25.6306   -0.0207 H         1 UNK         0.3013 
    105 H105       26.9456   28.7993    2.9102 H         1 UNK         0.3121 
    106 H106       27.6704   29.8940    5.5200 H         1 UNK         0.0774 
    107 H107       25.1776   30.9230    4.0482 H         1 UNK         0.0815 
    108 H108       25.8892   31.6484    5.4849 H         1 UNK         0.0815 
    109 H109       25.1674   30.0550    5.5814 H         1 UNK         0.0815 
    110 H110       28.7998   29.4988    2.6935 H         1 UNK         0.2987 
    111 H111       29.2117   32.2641    1.7414 H         1 UNK         0.0949 
    112 H112       30.2751   29.5706    0.7146 H         1 UNK         0.0806 
    113 H113       28.8947   30.4506    0.0636 H         1 UNK         0.0806 
    114 H114       30.5079   31.1268   -0.0657 H         1 UNK         0.0806 
    115 H115       31.1877   33.3448    1.8946 H         1 UNK         0.3010 
    116 H116       32.8124   32.8912    4.1445 H         1 UNK         0.0829 
    117 H117       32.5117   35.1254    3.1186 H         1 UNK         0.0813 
    118 H118       34.2195   34.7289    3.1913 H         1 UNK         0.0813 
    119 H119       33.3618   34.6086    1.6615 H         1 UNK         0.0813 
    120 H120       33.3406   31.9288    0.7597 H         1 UNK         0.3038 
    121 H121       36.0165   30.9226    1.1274 H         1 UNK         0.0769 
    122 H122       33.9207   30.3011   -1.0269 H         1 UNK         0.0811 
    123 H123       35.6263   29.8956   -1.1137 H         1 UNK         0.0811 
    124 H124       35.1345   31.5817   -1.1070 H         1 UNK         0.0811 
    125 H125       32.8551   29.6166    1.8505 H         1 UNK         0.3204 
    126 H126       33.7419   26.8079    1.8814 H         1 UNK         0.0748 
    127 H127       31.0165   28.0273    2.6038 H         1 UNK         0.0771 
    128 H128       31.4630   27.4554    1.0014 H         1 UNK         0.0771 
    129 H129       31.3774   26.3325    2.3521 H         1 UNK         0.0771 
    130 H130       32.4342   29.2812    4.1496 H         1 UNK         0.2980 
    131 H131       33.1421   27.5328    6.4446 H         1 UNK         0.0545 
    132 H132       35.1937   30.9359    6.5885 H         1 UNK         0.3459 
    133 H133       34.5321   30.3561    5.0862 H         1 UNK         0.3459 
    134 H134       31.2702   28.5245    7.6251 H         1 UNK         0.0616 
    135 H135       31.0616   29.7540    6.4014 H         1 UNK         0.0616 
    136 H136       31.4846   25.9276    6.6916 H         1 UNK         0.0634 
    137 H137       29.8711   25.9813    7.3622 H         1 UNK         0.0634 
@<TRIPOS>BOND
     1    1    2 1    
     2    1   72 1    
     3    1   73 1    
     4    1   74 1    
     5    2    3 2    
     6    2    4 am   BACKBONE|DICT|INTERRES
     7    4    5 1    
     8    4   75 1    
     9    5    6 1    
    10    5   35 1    
    11    5   76 1    
    12    6    7 1    
    13    6   77 1    
    14    6   78 1    
    15    7    8 1    
    16    8    9 1    
    17    8   79 1    
    18    8   80 1    
    19    9   10 ar   
    20    9   14 ar   
    21   10   11 ar   
    22   10   81 1    
    23   11   12 ar   
    24   11   71 1    
    25   12   13 ar   
    26   12   82 1    
    27   13   14 ar   
    28   13   15 1    
    29   14   83 1    
    30   15   16 1    
    31   15   84 1    
    32   15   85 1    
    33   16   17 1    
    34   17   18 1    
    35   17   86 1    
    36   17   87 1    
    37   18   19 1    
    38   18   37 1    
    39   18   88 1    
    40   19   20 am   BACKBONE|DICT|INTERRES
    41   19   89 1    
    42   20   21 2    
    43   20   22 1    
    44   22   23 1    
    45   22   24 1    
    46   22   90 1    
    47   23   91 1    
    48   23   92 1    
    49   23   93 1    
    50   24   25 am   BACKBONE|DICT|INTERRES
    51   24   94 1    
    52   25   26 2    
    53   25   27 1    
    54   27   28 1    
    55   27   29 1    
    56   27   95 1    
    57   28   96 1    
    58   28   97 1    
    59   28   98 1    
    60   29   30 am   BACKBONE|DICT|INTERRES
    61   29   99 1    
    62   30   31 2    
    63   30   32 1    
    64   32   33 1    
    65   32   34 1    
    66   32  100 1    
    67   33  101 1    
    68   33  102 1    
    69   33  103 1    
    70   34   35 am   BACKBONE|DICT|INTERRES
    71   34  104 1    
    72   35   36 2    
    73   37   38 2    
    74   37   39 am   BACKBONE|DICT|INTERRES
    75   39   40 1    
    76   39  105 1    
    77   40   41 1    
    78   40   42 1    
    79   40  106 1    
    80   41  107 1    
    81   41  108 1    
    82   41  109 1    
    83   42   43 2    
    84   42   44 am   BACKBONE|DICT|INTERRES
    85   44   45 1    
    86   44  110 1    
    87   45   46 1    
    88   45   47 1    
    89   45  111 1    
    90   46  112 1    
    91   46  113 1    
    92   46  114 1    
    93   47   48 2    
    94   47   49 am   BACKBONE|DICT|INTERRES
    95   49   50 1    
    96   49  115 1    
    97   50   51 1    
    98   50   52 1    
    99   50  116 1    
   100   51  117 1    
   101   51  118 1    
   102   51  119 1    
   103   52   53 2    
   104   52   54 am   BACKBONE|DICT|INTERRES
   105   54   55 1    
   106   54  120 1    
   107   55   56 1    
   108   55   57 1    
   109   55  121 1    
   110   56  122 1    
   111   56  123 1    
   112   56  124 1    
   113   57   58 2    
   114   57   59 am   BACKBONE|DICT|INTERRES
   115   59   60 1    
   116   59  125 1    
   117   60   61 1    
   118   60   62 1    
   119   60  126 1    
   120   61  127 1    
   121   61  128 1    
   122   61  129 1    
   123   62   63 2    
   124   62   64 am   BACKBONE|DICT|INTERRES
   125   64   65 1    
   126   64  130 1    
   127   65   66 1    
   128   65   69 1    
   129   65  131 1    
   130   66   67 am   BACKBONE|DICT|INTERRES
   131   66   68 2    
   132   67  132 1    
   133   67  133 1    
   134   69   70 1    
   135   69  134 1    
   136   69  135 1    
   137   70   71 1    
   138   71  136 1    
   139   71  137 1    
@<TRIPOS>SUBSTRUCTURE
     1 UNK         1 GROUP             0       ****    0 ROOT    
