@<TRIPOS>MOLECULE
3R136
137   139    1
SMALL
USER_CHARGES


@<TRIPOS>ATOM
      1 CA         28.3873   16.9369   -1.2327 C.3       0 UNK        -0.1979 
      2 C          28.6913   18.4279   -1.2454 C.2       0 UNK         0.4864 
      3 O          28.8261   19.0155   -2.3200 O.2       0 UNK        -0.5359 
      4 N          28.8088   19.0413   -0.0609 N.am      1 UNK        -0.4318 
      5 CA         29.0531   20.4740    0.1223 C.3       1 UNK         0.0824 
      6 C6         29.4206   20.8086    1.5894 C.3       12 UNK        -0.0944 
      7 S7         31.0301   20.1164    2.1099 S.3       12 UNK        -0.2672 
      8 C8         32.2389   21.3559    1.5235 C.3       12 UNK         0.0333 
      9 C9         31.9044   22.7674    1.9862 C.ar      12 UNK        -0.0807 
     10 C10        32.1405   23.1610    3.3069 C.ar      12 UNK        -0.0894 
     11 C11        31.7656   24.4359    3.7465 C.ar      12 UNK        -0.0804 
     12 C12        31.1506   25.3180    2.8509 C.ar      12 UNK        -0.0824 
     13 C13        30.9243   24.9373    1.5245 C.ar      12 UNK        -0.0762 
     14 C14        31.3197   23.6694    1.0942 C.ar      12 UNK        -0.0782 
     15 C15        30.1858   25.8590    0.5708 C.3       12 UNK         0.0230 
     16 S16        31.1937   27.2543    0.0110 S.3       12 UNK        -0.2608 
     17 C17        29.9357   28.1805   -0.9558 C.3       12 UNK        -0.0989 
     18 CA         28.9156   29.0722   -0.1758 C.3       5 UNK         0.0716 
     19 N          27.6066   28.4217   -0.0206 N.am      5 UNK        -0.4135 
     20 C          26.4901   29.0436    0.3976 C.2       4 UNK         0.5031 
     21 O          26.4297   30.2541    0.6179 O.2       4 UNK        -0.5229 
     22 CA         25.2340   28.1837    0.6567 C.3       4 UNK         0.0329 
     23 CB         24.2720   28.2727   -0.5386 C.3       4 UNK        -0.2001 
     24 N          25.5023   26.7715    0.9496 N.am      4 UNK        -0.4303 
     25 C          26.3132   26.3095    1.9115 C.2       3 UNK         0.5044 
     26 O          26.8795   27.0353    2.7282 O.2       3 UNK        -0.5152 
     27 CA         26.6060   24.7978    1.9376 C.3       3 UNK         0.0319 
     28 CB         25.7207   24.1054    2.9852 C.3       3 UNK        -0.2001 
     29 N          26.5026   24.0637    0.6661 N.am      3 UNK        -0.4354 
     30 C          26.9876   24.4089   -0.5370 C.2       2 UNK         0.4964 
     31 O          27.4335   25.5243   -0.8132 O.2       2 UNK        -0.5047 
     32 CA         27.0351   23.2838   -1.5864 C.3       2 UNK         0.0288 
     33 CB         27.3786   23.8059   -2.9943 C.3       2 UNK        -0.2113 
     34 N          28.0334   22.2853   -1.1925 N.am      2 UNK        -0.4145 
     35 C          27.8238   21.2988   -0.3097 C.2       1 UNK         0.5006 
     36 O          26.7257   21.0685    0.2047 O.2       1 UNK        -0.5103 
     37 C          29.4817   29.6328    1.1495 C.2       5 UNK         0.5055 
     38 O          30.2727   30.5759    1.0993 O.2       5 UNK        -0.5220 
     39 N          29.0972   29.0462    2.2977 N.am      6 UNK        -0.4450 
     40 CA         29.6848   29.3058    3.6157 C.3       6 UNK         0.0367 
     41 CB         29.0043   28.4254    4.6751 C.3       6 UNK        -0.1929 
     42 C          29.6579   30.7759    4.0548 C.2       6 UNK         0.5070 
     43 O          30.6119   31.2227    4.6896 O.2       6 UNK        -0.5237 
     44 N          28.5996   31.5042    3.6760 N.am      7 UNK        -0.4739 
     45 CA         28.4360   32.9345    3.9467 C.3       7 UNK         0.0276 
     46 CB         26.9904   33.3448    3.6237 C.3       7 UNK        -0.1927 
     47 C          29.4319   33.8258    3.1817 C.2       7 UNK         0.5013 
     48 O          29.7775   34.8978    3.6792 O.2       7 UNK        -0.5193 
     49 N          29.8732   33.3752    1.9994 N.am      8 UNK        -0.4253 
     50 CA         30.8687   34.0576    1.1717 C.3       8 UNK         0.0242 
     51 CB         30.5489   33.8218   -0.3141 C.3       8 UNK        -0.2000 
     52 C          32.2879   33.5754    1.5035 C.2       8 UNK         0.4948 
     53 O          33.2031   34.3948    1.5863 O.2       8 UNK        -0.5275 
     54 N          32.4439   32.2576    1.6911 N.am      9 UNK        -0.4246 
     55 CA         33.7134   31.5945    1.9959 C.3       9 UNK         0.0261 
     56 CB         33.5586   30.0879    1.7243 C.3       9 UNK        -0.1959 
     57 C          34.2161   31.8257    3.4325 C.2       9 UNK         0.5033 
     58 O          35.4036   31.6139    3.6819 O.2       9 UNK        -0.5390 
     59 N          33.3119   32.2125    4.3468 N.am      10 UNK        -0.4215 
     60 CA         33.4959   32.3021    5.8022 C.3       10 UNK         0.0240 
     61 CB         34.5380   33.3772    6.1791 C.3       10 UNK        -0.1982 
     62 C          33.7823   30.9203    6.4246 C.2       10 UNK         0.4970 
     63 O          34.6238   30.8012    7.3173 O.2       10 UNK        -0.4916 
     64 N          33.0839   29.8988    5.9145 N.am      11 UNK        -0.4279 
     65 CA         33.1963   28.5004    6.3409 C.3       11 UNK         0.1003 
     66 C          32.3700   28.2370    7.6288 C.2       11 UNK         0.5709 
     67 N          32.8760   27.4161    8.5387 N.am      11 UNK        -0.7358 
     68 O          31.2638   28.7471    7.7959 O.2       11 UNK        -0.4999 
     69 C69        32.8068   27.5488    5.1789 C.3       12 UNK        -0.0954 
     70 S70        33.4831   25.8673    5.3877 S.3       12 UNK        -0.2268 
     71 C71        31.9938   24.8377    5.1979 C.3       12 UNK         0.0203 
     72 H72        28.3070   16.5459   -0.2185 H         1 UNK         0.0888 
     73 H73        27.4466   16.7415   -1.7469 H         1 UNK         0.0888 
     74 H74        29.1771   16.3886   -1.7456 H         1 UNK         0.0888 
     75 H75        28.6816   18.5106    0.7888 H         1 UNK         0.3017 
     76 H76        29.8955   20.7524   -0.5146 H         1 UNK         0.0873 
     77 H77        29.4120   21.8839    1.7672 H         1 UNK         0.0745 
     78 H78        28.6593   20.4109    2.2636 H         1 UNK         0.0745 
     79 H79        33.2301   21.0805    1.8867 H         1 UNK         0.0705 
     80 H80        32.2929   21.3104    0.4348 H         1 UNK         0.0705 
     81 H81        32.5942   22.4632    3.9978 H         1 UNK         0.1334 
     82 H82        30.8407   26.2981    3.1829 H         1 UNK         0.1417 
     83 H83        31.1338   23.3676    0.0727 H         1 UNK         0.1562 
     84 H84        29.2860   26.2318    1.0591 H         1 UNK         0.0748 
     85 H85        29.8689   25.3027   -0.3107 H         1 UNK         0.0748 
     86 H86        29.4173   27.4890   -1.6229 H         1 UNK         0.0940 
     87 H87        30.5051   28.8290   -1.6239 H         1 UNK         0.0940 
     88 H88        28.7262   29.9469   -0.8022 H         1 UNK         0.0703 
     89 H89        27.5607   27.4264   -0.2211 H         1 UNK         0.3081 
     90 H90        24.7347   28.6040    1.5319 H         1 UNK         0.0719 
     91 H91        24.0289   29.3112   -0.7687 H         1 UNK         0.0809 
     92 H92        24.7053   27.8322   -1.4377 H         1 UNK         0.0809 
     93 H93        23.3317   27.7612   -0.3319 H         1 UNK         0.0809 
     94 H94        25.1116   26.0969    0.3082 H         1 UNK         0.2990 
     95 H95        27.6434   24.6938    2.2616 H         1 UNK         0.0690 
     96 H96        25.7965   24.6018    3.9541 H         1 UNK         0.0788 
     97 H97        26.0178   23.0669    3.1333 H         1 UNK         0.0788 
     98 H98        24.6697   24.1166    2.6936 H         1 UNK         0.0788 
     99 H99        26.1810   23.1062    0.7515 H         1 UNK         0.2993 
    100 H100       26.0465   22.8209   -1.6306 H         1 UNK         0.0949 
    101 H101       26.6529   24.5521   -3.3207 H         1 UNK         0.0767 
    102 H102       28.3637   24.2738   -3.0262 H         1 UNK         0.0767 
    103 H103       27.3666   23.0002   -3.7286 H         1 UNK         0.0767 
    104 H104       28.9608   22.4123   -1.5711 H         1 UNK         0.3013 
    105 H105       28.3924   28.3161    2.2628 H         1 UNK         0.3121 
    106 H106       30.7331   29.0138    3.5486 H         1 UNK         0.0774 
    107 H107       29.1018   27.3655    4.4418 H         1 UNK         0.0815 
    108 H108       29.4475   28.5821    5.6595 H         1 UNK         0.0815 
    109 H109       27.9403   28.6498    4.7592 H         1 UNK         0.0815 
    110 H110       27.8749   31.0514    3.1362 H         1 UNK         0.2987 
    111 H111       28.6093   33.0964    5.0131 H         1 UNK         0.0949 
    112 H112       26.7478   33.1764    2.5735 H         1 UNK         0.0806 
    113 H113       26.2749   32.7863    4.2276 H         1 UNK         0.0806 
    114 H114       26.8292   34.4038    3.8305 H         1 UNK         0.0806 
    115 H115       29.5868   32.4517    1.6953 H         1 UNK         0.3010 
    116 H116       30.8269   35.1334    1.3571 H         1 UNK         0.0829 
    117 H117       30.5732   32.7629   -0.5744 H         1 UNK         0.0813 
    118 H118       29.5618   34.2063   -0.5713 H         1 UNK         0.0813 
    119 H119       31.2714   34.3312   -0.9532 H         1 UNK         0.0813 
    120 H120       31.6389   31.6489    1.5466 H         1 UNK         0.3038 
    121 H121       34.4735   31.9882    1.3177 H         1 UNK         0.0769 
    122 H122       32.7940   29.6399    2.3591 H         1 UNK         0.0811 
    123 H123       34.4921   29.5557    1.9120 H         1 UNK         0.0811 
    124 H124       33.2802   29.8974    0.6874 H         1 UNK         0.0811 
    125 H125       32.3481   32.2878    4.0417 H         1 UNK         0.3204 
    126 H126       32.5355   32.6222    6.2091 H         1 UNK         0.0748 
    127 H127       34.5602   33.5357    7.2580 H         1 UNK         0.0771 
    128 H128       35.5457   33.0944    5.8737 H         1 UNK         0.0771 
    129 H129       34.3033   34.3355    5.7158 H         1 UNK         0.0771 
    130 H130       32.3318   30.1199    5.2745 H         1 UNK         0.2980 
    131 H131       34.2486   28.3231    6.5738 H         1 UNK         0.0545 
    132 H132       33.7708   26.9736    8.3977 H         1 UNK         0.3459 
    133 H133       32.3479   27.2259    9.3757 H         1 UNK         0.3459 
    134 H134       33.2027   27.9257    4.2344 H         1 UNK         0.0616 
    135 H135       31.7250   27.5121    5.0587 H         1 UNK         0.0616 
    136 H136       31.1174   25.3537    5.5927 H         1 UNK         0.0634 
    137 H137       32.1157   23.9464    5.8152 H         1 UNK         0.0634 
@<TRIPOS>BOND
     1    1    2 1    
     2    1   72 1    
     3    1   73 1    
     4    1   74 1    
     5    2    3 2    
     6    2    4 am   BACKBONE|DICT|INTERRES
     7    4    5 1    
     8    4   75 1    
     9    5    6 1    
    10    5   35 1    
    11    5   76 1    
    12    6    7 1    
    13    6   77 1    
    14    6   78 1    
    15    7    8 1    
    16    8    9 1    
    17    8   79 1    
    18    8   80 1    
    19    9   10 ar   
    20    9   14 ar   
    21   10   11 ar   
    22   10   81 1    
    23   11   12 ar   
    24   11   71 1    
    25   12   13 ar   
    26   12   82 1    
    27   13   14 ar   
    28   13   15 1    
    29   14   83 1    
    30   15   16 1    
    31   15   84 1    
    32   15   85 1    
    33   16   17 1    
    34   17   18 1    
    35   17   86 1    
    36   17   87 1    
    37   18   19 1    
    38   18   37 1    
    39   18   88 1    
    40   19   20 am   BACKBONE|DICT|INTERRES
    41   19   89 1    
    42   20   21 2    
    43   20   22 1    
    44   22   23 1    
    45   22   24 1    
    46   22   90 1    
    47   23   91 1    
    48   23   92 1    
    49   23   93 1    
    50   24   25 am   BACKBONE|DICT|INTERRES
    51   24   94 1    
    52   25   26 2    
    53   25   27 1    
    54   27   28 1    
    55   27   29 1    
    56   27   95 1    
    57   28   96 1    
    58   28   97 1    
    59   28   98 1    
    60   29   30 am   BACKBONE|DICT|INTERRES
    61   29   99 1    
    62   30   31 2    
    63   30   32 1    
    64   32   33 1    
    65   32   34 1    
    66   32  100 1    
    67   33  101 1    
    68   33  102 1    
    69   33  103 1    
    70   34   35 am   BACKBONE|DICT|INTERRES
    71   34  104 1    
    72   35   36 2    
    73   37   38 2    
    74   37   39 am   BACKBONE|DICT|INTERRES
    75   39   40 1    
    76   39  105 1    
    77   40   41 1    
    78   40   42 1    
    79   40  106 1    
    80   41  107 1    
    81   41  108 1    
    82   41  109 1    
    83   42   43 2    
    84   42   44 am   BACKBONE|DICT|INTERRES
    85   44   45 1    
    86   44  110 1    
    87   45   46 1    
    88   45   47 1    
    89   45  111 1    
    90   46  112 1    
    91   46  113 1    
    92   46  114 1    
    93   47   48 2    
    94   47   49 am   BACKBONE|DICT|INTERRES
    95   49   50 1    
    96   49  115 1    
    97   50   51 1    
    98   50   52 1    
    99   50  116 1    
   100   51  117 1    
   101   51  118 1    
   102   51  119 1    
   103   52   53 2    
   104   52   54 am   BACKBONE|DICT|INTERRES
   105   54   55 1    
   106   54  120 1    
   107   55   56 1    
   108   55   57 1    
   109   55  121 1    
   110   56  122 1    
   111   56  123 1    
   112   56  124 1    
   113   57   58 2    
   114   57   59 am   BACKBONE|DICT|INTERRES
   115   59   60 1    
   116   59  125 1    
   117   60   61 1    
   118   60   62 1    
   119   60  126 1    
   120   61  127 1    
   121   61  128 1    
   122   61  129 1    
   123   62   63 2    
   124   62   64 am   BACKBONE|DICT|INTERRES
   125   64   65 1    
   126   64  130 1    
   127   65   66 1    
   128   65   69 1    
   129   65  131 1    
   130   66   67 am   BACKBONE|DICT|INTERRES
   131   66   68 2    
   132   67  132 1    
   133   67  133 1    
   134   69   70 1    
   135   69  134 1    
   136   69  135 1    
   137   70   71 1    
   138   71  136 1    
   139   71  137 1    
@<TRIPOS>SUBSTRUCTURE
     1 UNK         1 GROUP             0       ****    0 ROOT    
