@<TRIPOS>MOLECULE
3R136
137   139    1
SMALL
USER_CHARGES


@<TRIPOS>ATOM
      1 CA         31.9872   17.7077    2.2940 C.3       0 UNK        -0.1979 
      2 C          30.6031   17.9812    1.7242 C.2       0 UNK         0.4864 
      3 O          29.6483   17.2852    2.0743 O.2       0 UNK        -0.5359 
      4 N          30.4894   18.9821    0.8425 N.am      1 UNK        -0.4318 
      5 CA         29.2327   19.4443    0.2473 C.3       1 UNK         0.0824 
      6 C6         29.4728   20.3118   -1.0189 C.3       12 UNK        -0.0944 
      7 S7         30.7301   21.6262   -0.8244 S.3       12 UNK        -0.2672 
      8 C8         29.6717   23.0780   -0.5563 C.3       12 UNK         0.0333 
      9 C9         30.4908   24.3107   -0.2099 C.ar      12 UNK        -0.0807 
     10 C10        31.0434   24.4454    1.0675 C.ar      12 UNK        -0.0894 
     11 C11        31.7530   25.5990    1.4123 C.ar      12 UNK        -0.0804 
     12 C12        31.9319   26.6081    0.4641 C.ar      12 UNK        -0.0824 
     13 C13        31.3675   26.4938   -0.8079 C.ar      12 UNK        -0.0762 
     14 C14        30.6545   25.3387   -1.1438 C.ar      12 UNK        -0.0782 
     15 C15        31.5106   27.6275   -1.8108 C.3       12 UNK         0.0230 
     16 S16        30.0167   28.6691   -1.8692 S.3       12 UNK        -0.2608 
     17 C17        30.0776   29.5611   -0.2761 C.3       12 UNK        -0.0989 
     18 CA         28.8038   29.3208    0.5748 C.3       5 UNK         0.0716 
     19 N          28.7043   27.9358    1.0398 N.am      5 UNK        -0.4135 
     20 C          27.5697   27.3477    1.4359 C.2       4 UNK         0.5031 
     21 O          26.4577   27.8820    1.3947 O.2       4 UNK        -0.5229 
     22 CA         27.7055   25.9239    2.0006 C.3       4 UNK         0.0329 
     23 CB         27.6019   25.9399    3.5345 C.3       4 UNK        -0.2001 
     24 N          26.7099   24.9926    1.4667 N.am      4 UNK        -0.4303 
     25 C          26.5133   24.6970    0.1755 C.2       3 UNK         0.5044 
     26 O          27.1619   25.1853   -0.7507 O.2       3 UNK        -0.5152 
     27 CA         25.4336   23.6374   -0.1199 C.3       3 UNK         0.0319 
     28 CB         25.1699   23.4673   -1.6282 C.3       3 UNK        -0.2001 
     29 N          25.7814   22.3298    0.4444 N.am      3 UNK        -0.4354 
     30 C          25.6552   21.9771    1.7319 C.2       2 UNK         0.4964 
     31 O          25.2435   22.7397    2.6075 O.2       2 UNK        -0.5047 
     32 CA         26.0383   20.5362    2.1111 C.3       2 UNK         0.0288 
     33 CB         24.7865   19.6437    2.1421 C.3       2 UNK        -0.2113 
     34 N          27.0297   19.9418    1.2080 N.am      2 UNK        -0.4145 
     35 C          28.3492   20.1631    1.2905 C.2       1 UNK         0.5006 
     36 O          28.8663   20.9038    2.1311 O.2       1 UNK        -0.5103 
     37 C          28.7212   30.3085    1.7592 C.2       5 UNK         0.5055 
     38 O          28.9334   29.9277    2.9148 O.2       5 UNK        -0.5220 
     39 N          28.4135   31.5703    1.4289 N.am      6 UNK        -0.4450 
     40 CA         28.2774   32.6983    2.3542 C.3       6 UNK         0.0367 
     41 CB         27.4837   33.8143    1.6448 C.3       6 UNK        -0.1929 
     42 C          29.6317   33.1955    2.9044 C.2       6 UNK         0.5070 
     43 O          30.6339   32.4814    2.8362 O.2       6 UNK        -0.5237 
     44 N          29.6455   34.4251    3.4396 N.am      7 UNK        -0.4739 
     45 CA         30.7528   35.0836    4.1531 C.3       7 UNK         0.0276 
     46 CB         30.3082   36.5010    4.5501 C.3       7 UNK        -0.1927 
     47 C          32.1181   35.1360    3.4360 C.2       7 UNK         0.5013 
     48 O          33.1297   35.3472    4.1053 O.2       7 UNK        -0.5193 
     49 N          32.1399   34.9212    2.1129 N.am      8 UNK        -0.4253 
     50 CA         33.3561   34.7101    1.3212 C.3       8 UNK         0.0242 
     51 CB         32.9919   34.6786   -0.1719 C.3       8 UNK        -0.2000 
     52 C          34.1185   33.4292    1.7184 C.2       8 UNK         0.4948 
     53 O          35.3487   33.4213    1.6593 O.2       8 UNK        -0.5275 
     54 N          33.3796   32.3889    2.1286 N.am      9 UNK        -0.4246 
     55 CA         33.9082   31.1540    2.7115 C.3       9 UNK         0.0261 
     56 CB         33.2233   29.9450    2.0544 C.3       9 UNK        -0.1959 
     57 C          33.6765   31.1257    4.2300 C.2       9 UNK         0.5033 
     58 O          34.5529   30.6673    4.9630 O.2       9 UNK        -0.5390 
     59 N          32.5001   31.6061    4.6650 N.am      10 UNK        -0.4215 
     60 CA         32.0075   31.6899    6.0460 C.3       10 UNK         0.0240 
     61 CB         32.8848   32.6392    6.8897 C.3       10 UNK        -0.1982 
     62 C          31.7862   30.3219    6.7240 C.2       10 UNK         0.4970 
     63 O          31.7279   30.2587    7.9534 O.2       10 UNK        -0.4916 
     64 N          31.6482   29.2576    5.9237 N.am      11 UNK        -0.4279 
     65 CA         31.3790   27.8885    6.3850 C.3       11 UNK         0.1003 
     66 C          29.8926   27.6142    6.7575 C.2       11 UNK         0.5709 
     67 N          28.9416   28.4498    6.3549 N.am      11 UNK        -0.7358 
     68 O          29.6023   26.6344    7.4398 O.2       11 UNK        -0.4999 
     69 C69        31.9434   26.8377    5.3941 C.3       12 UNK        -0.0954 
     70 S70        31.2497   26.9797    3.7155 S.3       12 UNK        -0.2268 
     71 C71        32.2850   25.7862    2.8213 C.3       12 UNK         0.0203 
     72 H72        31.9757   17.8217    3.3776 H         1 UNK         0.0888 
     73 H73        32.2948   16.6886    2.0609 H         1 UNK         0.0888 
     74 H74        32.7360   18.3887    1.8895 H         1 UNK         0.0888 
     75 H75        31.2970   19.5449    0.6138 H         1 UNK         0.3017 
     76 H76        28.6896   18.5524   -0.0741 H         1 UNK         0.0873 
     77 H77        29.8218   19.6632   -1.8239 H         1 UNK         0.0745 
     78 H78        28.5387   20.7410   -1.3867 H         1 UNK         0.0745 
     79 H79        28.9714   22.8796    0.2551 H         1 UNK         0.0705 
     80 H80        29.0690   23.2526   -1.4490 H         1 UNK         0.0705 
     81 H81        30.8946   23.6614    1.7982 H         1 UNK         0.1334 
     82 H82        32.4837   27.4975    0.7324 H         1 UNK         0.1417 
     83 H83        30.2061   25.2525   -2.1244 H         1 UNK         0.1562 
     84 H84        31.6887   27.2125   -2.8039 H         1 UNK         0.0748 
     85 H85        32.3797   28.2459   -1.5803 H         1 UNK         0.0748 
     86 H86        30.1962   30.6200   -0.5136 H         1 UNK         0.0940 
     87 H87        30.9711   29.2836    0.2806 H         1 UNK         0.0940 
     88 H88        27.9365   29.5177   -0.0599 H         1 UNK         0.0703 
     89 H89        29.5742   27.4301    1.1244 H         1 UNK         0.3081 
     90 H90        28.6866   25.5374    1.7301 H         1 UNK         0.0719 
     91 H91        28.3042   26.6525    3.9683 H         1 UNK         0.0809 
     92 H92        26.6043   26.2294    3.8668 H         1 UNK         0.0809 
     93 H93        27.8295   24.9619    3.9589 H         1 UNK         0.0809 
     94 H94        26.1374   24.4994    2.1435 H         1 UNK         0.2990 
     95 H95        24.5056   23.9839    0.3404 H         1 UNK         0.0690 
     96 H96        24.3580   22.7636   -1.8125 H         1 UNK         0.0788 
     97 H97        26.0539   23.1070   -2.1562 H         1 UNK         0.0788 
     98 H98        24.8827   24.4163   -2.0832 H         1 UNK         0.0788 
     99 H99        26.1408   21.6449   -0.2029 H         1 UNK         0.2993 
    100 H100       26.4562   20.5667    3.1203 H         1 UNK         0.0949 
    101 H101       24.0386   20.0444    2.8281 H         1 UNK         0.0767 
    102 H102       24.3188   19.5658    1.1597 H         1 UNK         0.0767 
    103 H103       25.0267   18.6357    2.4815 H         1 UNK         0.0767 
    104 H104       26.6788   19.3082    0.5035 H         1 UNK         0.3013 
    105 H105       28.2829   31.7878    0.4517 H         1 UNK         0.3121 
    106 H106       27.6946   32.3572    3.2124 H         1 UNK         0.0774 
    107 H107       28.0578   34.2678    0.8354 H         1 UNK         0.0815 
    108 H108       26.5566   33.4297    1.2188 H         1 UNK         0.0815 
    109 H109       27.1983   34.6096    2.3340 H         1 UNK         0.0815 
    110 H110       28.7780   34.9421    3.4232 H         1 UNK         0.2987 
    111 H111       30.9150   34.5150    5.0705 H         1 UNK         0.0949 
    112 H112       29.4202   36.4784    5.1821 H         1 UNK         0.0806 
    113 H113       31.0882   37.0145    5.1146 H         1 UNK         0.0806 
    114 H114       30.0843   37.1122    3.6749 H         1 UNK         0.0806 
    115 H115       31.2573   34.7639    1.6490 H         1 UNK         0.3010 
    116 H116       34.0215   35.5584    1.4963 H         1 UNK         0.0829 
    117 H117       32.3098   33.8599   -0.4053 H         1 UNK         0.0813 
    118 H118       33.8830   34.5454   -0.7870 H         1 UNK         0.0813 
    119 H119       32.5203   35.6101   -0.4857 H         1 UNK         0.0813 
    120 H120       32.3700   32.5053    2.1674 H         1 UNK         0.3038 
    121 H121       34.9828   31.0779    2.5323 H         1 UNK         0.0769 
    122 H122       33.3895   29.9351    0.9772 H         1 UNK         0.0811 
    123 H123       32.1469   29.9455    2.2317 H         1 UNK         0.0811 
    124 H124       33.6188   29.0102    2.4544 H         1 UNK         0.0811 
    125 H125       31.8283   31.9127    3.9601 H         1 UNK         0.3204 
    126 H126       31.0167   32.1406    5.9749 H         1 UNK         0.0748 
    127 H127       33.8728   32.2174    7.0764 H         1 UNK         0.0771 
    128 H128       33.0203   33.6007    6.3945 H         1 UNK         0.0771 
    129 H129       32.4284   32.8381    7.8601 H         1 UNK         0.0771 
    130 H130       31.6783   29.3861    4.9236 H         1 UNK         0.2980 
    131 H131       31.9329   27.7506    7.3156 H         1 UNK         0.0545 
    132 H132       29.1650   29.2274    5.7540 H         1 UNK         0.3459 
    133 H133       27.9848   28.2668    6.6102 H         1 UNK         0.3459 
    134 H134       31.7694   25.8253    5.7633 H         1 UNK         0.0616 
    135 H135       33.0266   26.9498    5.3255 H         1 UNK         0.0616 
    136 H136       33.3147   26.1451    2.7890 H         1 UNK         0.0634 
    137 H137       32.2959   24.8371    3.3595 H         1 UNK         0.0634 
@<TRIPOS>BOND
     1    1    2 1    
     2    1   72 1    
     3    1   73 1    
     4    1   74 1    
     5    2    3 2    
     6    2    4 am   BACKBONE|DICT|INTERRES
     7    4    5 1    
     8    4   75 1    
     9    5    6 1    
    10    5   35 1    
    11    5   76 1    
    12    6    7 1    
    13    6   77 1    
    14    6   78 1    
    15    7    8 1    
    16    8    9 1    
    17    8   79 1    
    18    8   80 1    
    19    9   10 ar   
    20    9   14 ar   
    21   10   11 ar   
    22   10   81 1    
    23   11   12 ar   
    24   11   71 1    
    25   12   13 ar   
    26   12   82 1    
    27   13   14 ar   
    28   13   15 1    
    29   14   83 1    
    30   15   16 1    
    31   15   84 1    
    32   15   85 1    
    33   16   17 1    
    34   17   18 1    
    35   17   86 1    
    36   17   87 1    
    37   18   19 1    
    38   18   37 1    
    39   18   88 1    
    40   19   20 am   BACKBONE|DICT|INTERRES
    41   19   89 1    
    42   20   21 2    
    43   20   22 1    
    44   22   23 1    
    45   22   24 1    
    46   22   90 1    
    47   23   91 1    
    48   23   92 1    
    49   23   93 1    
    50   24   25 am   BACKBONE|DICT|INTERRES
    51   24   94 1    
    52   25   26 2    
    53   25   27 1    
    54   27   28 1    
    55   27   29 1    
    56   27   95 1    
    57   28   96 1    
    58   28   97 1    
    59   28   98 1    
    60   29   30 am   BACKBONE|DICT|INTERRES
    61   29   99 1    
    62   30   31 2    
    63   30   32 1    
    64   32   33 1    
    65   32   34 1    
    66   32  100 1    
    67   33  101 1    
    68   33  102 1    
    69   33  103 1    
    70   34   35 am   BACKBONE|DICT|INTERRES
    71   34  104 1    
    72   35   36 2    
    73   37   38 2    
    74   37   39 am   BACKBONE|DICT|INTERRES
    75   39   40 1    
    76   39  105 1    
    77   40   41 1    
    78   40   42 1    
    79   40  106 1    
    80   41  107 1    
    81   41  108 1    
    82   41  109 1    
    83   42   43 2    
    84   42   44 am   BACKBONE|DICT|INTERRES
    85   44   45 1    
    86   44  110 1    
    87   45   46 1    
    88   45   47 1    
    89   45  111 1    
    90   46  112 1    
    91   46  113 1    
    92   46  114 1    
    93   47   48 2    
    94   47   49 am   BACKBONE|DICT|INTERRES
    95   49   50 1    
    96   49  115 1    
    97   50   51 1    
    98   50   52 1    
    99   50  116 1    
   100   51  117 1    
   101   51  118 1    
   102   51  119 1    
   103   52   53 2    
   104   52   54 am   BACKBONE|DICT|INTERRES
   105   54   55 1    
   106   54  120 1    
   107   55   56 1    
   108   55   57 1    
   109   55  121 1    
   110   56  122 1    
   111   56  123 1    
   112   56  124 1    
   113   57   58 2    
   114   57   59 am   BACKBONE|DICT|INTERRES
   115   59   60 1    
   116   59  125 1    
   117   60   61 1    
   118   60   62 1    
   119   60  126 1    
   120   61  127 1    
   121   61  128 1    
   122   61  129 1    
   123   62   63 2    
   124   62   64 am   BACKBONE|DICT|INTERRES
   125   64   65 1    
   126   64  130 1    
   127   65   66 1    
   128   65   69 1    
   129   65  131 1    
   130   66   67 am   BACKBONE|DICT|INTERRES
   131   66   68 2    
   132   67  132 1    
   133   67  133 1    
   134   69   70 1    
   135   69  134 1    
   136   69  135 1    
   137   70   71 1    
   138   71  136 1    
   139   71  137 1    
@<TRIPOS>SUBSTRUCTURE
     1 UNK         1 GROUP             0       ****    0 ROOT    
