@<TRIPOS>MOLECULE
3R136
137   139    1
SMALL
USER_CHARGES


@<TRIPOS>ATOM
      1 CA         31.5268   25.2826   -1.9326 C.3       0 UNK        -0.1979 
      2 C          30.7066   24.4773   -0.9366 C.2       0 UNK         0.4864 
      3 O          29.9107   25.0497   -0.1904 O.2       0 UNK        -0.5359 
      4 N          30.8695   23.1472   -0.9332 N.am      1 UNK        -0.4318 
      5 CA         30.2221   22.2019   -0.0109 C.3       1 UNK         0.0824 
      6 C6         31.0067   20.8645    0.1020 C.3       12 UNK        -0.0944 
      7 S7         32.7966   21.0739    0.4053 S.3       12 UNK        -0.2672 
      8 C8         32.8920   21.0272    2.2233 C.3       12 UNK         0.0333 
      9 C9         32.3021   22.2812    2.8519 C.ar      12 UNK        -0.0807 
     10 C10        32.9608   23.5065    2.7206 C.ar      12 UNK        -0.0894 
     11 C11        32.4197   24.6655    3.2816 C.ar      12 UNK        -0.0804 
     12 C12        31.2163   24.5911    3.9883 C.ar      12 UNK        -0.0824 
     13 C13        30.5394   23.3709    4.1266 C.ar      12 UNK        -0.0762 
     14 C14        31.0981   22.2203    3.5597 C.ar      12 UNK        -0.0782 
     15 C15        29.2215   23.2280    4.8920 C.3       12 UNK         0.0230 
     16 S16        28.3597   24.7811    5.3186 S.3       12 UNK        -0.2608 
     17 C17        27.7377   25.3467    3.6961 C.3       12 UNK        -0.0989 
     18 CA         28.1053   26.8171    3.3684 C.3       5 UNK         0.0716 
     19 N          27.9740   27.0906    1.9321 N.am      5 UNK        -0.4135 
     20 C          28.3688   28.2192    1.3190 C.2       4 UNK         0.5031 
     21 O          29.0009   29.1094    1.8877 O.2       4 UNK        -0.5229 
     22 CA         27.9084   28.4576   -0.1343 C.3       4 UNK         0.0329 
     23 CB         29.0861   28.3887   -1.1162 C.3       4 UNK        -0.2001 
     24 N          26.8320   27.5678   -0.5838 N.am      4 UNK        -0.4303 
     25 C          25.5881   27.5629   -0.0810 C.2       3 UNK         0.5044 
     26 O          25.2138   28.3268    0.8089 O.2       3 UNK        -0.5152 
     27 CA         24.6159   26.4913   -0.6095 C.3       3 UNK         0.0319 
     28 CB         23.8001   27.0443   -1.7886 C.3       3 UNK        -0.2001 
     29 N          25.2508   25.2271   -1.0069 N.am      3 UNK        -0.4354 
     30 C          26.0158   24.4574   -0.2186 C.2       2 UNK         0.4964 
     31 O          26.3183   24.7632    0.9358 O.2       2 UNK        -0.5047 
     32 CA         26.5616   23.1480   -0.8081 C.3       2 UNK         0.0288 
     33 CB         26.3608   22.9963   -2.3327 C.3       2 UNK        -0.2113 
     34 N          27.9797   23.0761   -0.4793 N.am      2 UNK        -0.4145 
     35 C          28.7265   21.9772   -0.3491 C.2       1 UNK         0.5006 
     36 O          28.2842   20.8361   -0.5019 O.2       1 UNK        -0.5103 
     37 C          27.3204   27.8283    4.2455 C.2       5 UNK         0.5055 
     38 O          27.6666   28.0090    5.4132 O.2       5 UNK        -0.5220 
     39 N          26.3304   28.5363    3.6739 N.am      6 UNK        -0.4450 
     40 CA         25.6595   29.6777    4.3093 C.3       6 UNK         0.0367 
     41 CB         24.4861   30.1340    3.4283 C.3       6 UNK        -0.1929 
     42 C          26.5981   30.8672    4.6090 C.2       6 UNK         0.5070 
     43 O          26.2602   31.6939    5.4566 O.2       6 UNK        -0.5237 
     44 N          27.7543   30.9289    3.9344 N.am      7 UNK        -0.4739 
     45 CA         28.8204   31.9013    4.1581 C.3       7 UNK         0.0276 
     46 CB         28.7919   32.9515    3.0314 C.3       7 UNK        -0.1927 
     47 C          30.1687   31.1686    4.2518 C.2       7 UNK         0.5013 
     48 O          31.1450   31.6132    3.6452 O.2       7 UNK        -0.5193 
     49 N          30.2073   30.0559    5.0052 N.am      8 UNK        -0.4253 
     50 CA         31.3389   29.1207    5.1324 C.3       8 UNK         0.0242 
     51 CB         30.9761   28.0053    6.1276 C.3       8 UNK        -0.2000 
     52 C          32.6970   29.7325    5.5268 C.2       8 UNK         0.4948 
     53 O          33.7270   29.1213    5.2431 O.2       8 UNK        -0.5275 
     54 N          32.6889   30.9194    6.1511 N.am      9 UNK        -0.4246 
     55 CA         33.8839   31.7193    6.4385 C.3       9 UNK         0.0261 
     56 CB         33.4932   32.9215    7.3131 C.3       9 UNK        -0.1959 
     57 C          34.6198   32.1916    5.1683 C.2       9 UNK         0.5033 
     58 O          35.8428   32.3362    5.2044 O.2       9 UNK        -0.5390 
     59 N          33.8711   32.4055    4.0779 N.am      10 UNK        -0.4215 
     60 CA         34.3929   32.6803    2.7393 C.3       10 UNK         0.0240 
     61 CB         33.6165   33.8548    2.1199 C.3       10 UNK        -0.1982 
     62 C          34.2801   31.4305    1.8528 C.2       10 UNK         0.4970 
     63 O          35.2263   31.1184    1.1296 O.2       10 UNK        -0.4916 
     64 N          33.1320   30.7425    1.9322 N.am      11 UNK        -0.4279 
     65 CA         32.7775   29.5373    1.1685 C.3       11 UNK         0.1003 
     66 C          32.6573   29.7662   -0.3711 C.2       11 UNK         0.5709 
     67 N          32.3626   30.9792   -0.8256 N.am      11 UNK        -0.7358 
     68 O          32.8110   28.8443   -1.1681 O.2       11 UNK        -0.4999 
     69 C69        33.6488   28.3091    1.5650 C.3       12 UNK        -0.0954 
     70 S70        32.6949   26.7556    1.5192 S.3       12 UNK        -0.2268 
     71 C71        33.1307   25.9988    3.1122 C.3       12 UNK         0.0203 
     72 H72        32.2680   24.6672   -2.4419 H         1 UNK         0.0888 
     73 H73        30.8748   25.7263   -2.6843 H         1 UNK         0.0888 
     74 H74        32.0516   26.0887   -1.4203 H         1 UNK         0.0888 
     75 H75        31.5255   22.7298   -1.5775 H         1 UNK         0.3017 
     76 H76        30.2299   22.6675    0.9754 H         1 UNK         0.0873 
     77 H77        30.5845   20.2402    0.8917 H         1 UNK         0.0745 
     78 H78        30.9054   20.2901   -0.8209 H         1 UNK         0.0745 
     79 H79        33.9390   20.9408    2.5173 H         1 UNK         0.0705 
     80 H80        32.3966   20.1280    2.5928 H         1 UNK         0.0705 
     81 H81        33.8873   23.5604    2.1651 H         1 UNK         0.1334 
     82 H82        30.8158   25.4929    4.4246 H         1 UNK         0.1417 
     83 H83        30.5884   21.2718    3.6649 H         1 UNK         0.1562 
     84 H84        29.4267   22.6940    5.8207 H         1 UNK         0.0748 
     85 H85        28.5342   22.5995    4.3230 H         1 UNK         0.0748 
     86 H86        26.6572   25.1956    3.6573 H         1 UNK         0.0940 
     87 H87        28.1550   24.6912    2.9293 H         1 UNK         0.0940 
     88 H88        29.1623   26.9609    3.5983 H         1 UNK         0.0703 
     89 H89        27.4580   26.3990    1.3982 H         1 UNK         0.3081 
     90 H90        27.5156   29.4762   -0.1677 H         1 UNK         0.0719 
     91 H91        29.5511   27.4052   -1.1262 H         1 UNK         0.0809 
     92 H92        28.7740   28.6258   -2.1332 H         1 UNK         0.0809 
     93 H93        29.8566   29.1085   -0.8414 H         1 UNK         0.0809 
     94 H94        27.0640   26.8937   -1.2986 H         1 UNK         0.2990 
     95 H95        23.9241   26.2608    0.2033 H         1 UNK         0.0690 
     96 H96        24.4314   27.2581   -2.6521 H         1 UNK         0.0788 
     97 H97        23.2976   27.9731   -1.5142 H         1 UNK         0.0788 
     98 H98        23.0273   26.3419   -2.1018 H         1 UNK         0.0788 
     99 H99        25.0643   24.9052   -1.9459 H         1 UNK         0.2993 
    100 H100       26.0402   22.3342   -0.2999 H         1 UNK         0.0949 
    101 H101       26.8483   23.7982   -2.8889 H         1 UNK         0.0767 
    102 H102       26.7748   22.0531   -2.6900 H         1 UNK         0.0767 
    103 H103       25.3030   22.9923   -2.5986 H         1 UNK         0.0767 
    104 H104       28.4420   23.9669   -0.2971 H         1 UNK         0.3013 
    105 H105       26.0788   28.3498    2.7083 H         1 UNK         0.3121 
    106 H106       25.2567   29.3343    5.2644 H         1 UNK         0.0774 
    107 H107       23.9295   30.9414    3.9062 H         1 UNK         0.0815 
    108 H108       24.8296   30.5034    2.4612 H         1 UNK         0.0815 
    109 H109       23.7841   29.3202    3.2462 H         1 UNK         0.0815 
    110 H110       27.9746   30.2013    3.2596 H         1 UNK         0.2987 
    111 H111       28.6778   32.4126    5.1125 H         1 UNK         0.0949 
    112 H112       28.9726   32.4968    2.0564 H         1 UNK         0.0806 
    113 H113       27.8299   33.4624    2.9906 H         1 UNK         0.0806 
    114 H114       29.5567   33.7140    3.1849 H         1 UNK         0.0806 
    115 H115       29.3458   29.7636    5.4487 H         1 UNK         0.3010 
    116 H116       31.4761   28.6689    4.1478 H         1 UNK         0.0829 
    117 H117       31.8077   27.3126    6.2665 H         1 UNK         0.0813 
    118 H118       30.7217   28.4083    7.1085 H         1 UNK         0.0813 
    119 H119       30.1323   27.4130    5.7811 H         1 UNK         0.0813 
    120 H120       31.7955   31.3379    6.3648 H         1 UNK         0.3038 
    121 H121       34.5759   31.0923    7.0049 H         1 UNK         0.0769 
    122 H122       34.3693   33.5217    7.5634 H         1 UNK         0.0811 
    123 H123       33.0441   32.6003    8.2531 H         1 UNK         0.0811 
    124 H124       32.7835   33.5772    6.8067 H         1 UNK         0.0811 
    125 H125       32.8719   32.2274    4.1382 H         1 UNK         0.3204 
    126 H126       35.4473   32.9604    2.7908 H         1 UNK         0.0748 
    127 H127       33.9734   34.0713    1.1121 H         1 UNK         0.0771 
    128 H128       32.5475   33.6474    2.0528 H         1 UNK         0.0771 
    129 H129       33.7421   34.7630    2.7097 H         1 UNK         0.0771 
    130 H130       32.3913   31.0959    2.5355 H         1 UNK         0.2980 
    131 H131       31.7555   29.3305    1.4882 H         1 UNK         0.0545 
    132 H132       32.2225   31.7458   -0.1882 H         1 UNK         0.3459 
    133 H133       32.2829   31.1255   -1.8192 H         1 UNK         0.3459 
    134 H134       34.5261   28.2172    0.9225 H         1 UNK         0.0616 
    135 H135       34.0366   28.4357    2.5767 H         1 UNK         0.0616 
    136 H136       32.8690   26.6768    3.9250 H         1 UNK         0.0634 
    137 H137       34.2112   25.8558    3.1617 H         1 UNK         0.0634 
@<TRIPOS>BOND
     1    1    2 1    
     2    1   72 1    
     3    1   73 1    
     4    1   74 1    
     5    2    3 2    
     6    2    4 am   BACKBONE|DICT|INTERRES
     7    4    5 1    
     8    4   75 1    
     9    5    6 1    
    10    5   35 1    
    11    5   76 1    
    12    6    7 1    
    13    6   77 1    
    14    6   78 1    
    15    7    8 1    
    16    8    9 1    
    17    8   79 1    
    18    8   80 1    
    19    9   10 ar   
    20    9   14 ar   
    21   10   11 ar   
    22   10   81 1    
    23   11   12 ar   
    24   11   71 1    
    25   12   13 ar   
    26   12   82 1    
    27   13   14 ar   
    28   13   15 1    
    29   14   83 1    
    30   15   16 1    
    31   15   84 1    
    32   15   85 1    
    33   16   17 1    
    34   17   18 1    
    35   17   86 1    
    36   17   87 1    
    37   18   19 1    
    38   18   37 1    
    39   18   88 1    
    40   19   20 am   BACKBONE|DICT|INTERRES
    41   19   89 1    
    42   20   21 2    
    43   20   22 1    
    44   22   23 1    
    45   22   24 1    
    46   22   90 1    
    47   23   91 1    
    48   23   92 1    
    49   23   93 1    
    50   24   25 am   BACKBONE|DICT|INTERRES
    51   24   94 1    
    52   25   26 2    
    53   25   27 1    
    54   27   28 1    
    55   27   29 1    
    56   27   95 1    
    57   28   96 1    
    58   28   97 1    
    59   28   98 1    
    60   29   30 am   BACKBONE|DICT|INTERRES
    61   29   99 1    
    62   30   31 2    
    63   30   32 1    
    64   32   33 1    
    65   32   34 1    
    66   32  100 1    
    67   33  101 1    
    68   33  102 1    
    69   33  103 1    
    70   34   35 am   BACKBONE|DICT|INTERRES
    71   34  104 1    
    72   35   36 2    
    73   37   38 2    
    74   37   39 am   BACKBONE|DICT|INTERRES
    75   39   40 1    
    76   39  105 1    
    77   40   41 1    
    78   40   42 1    
    79   40  106 1    
    80   41  107 1    
    81   41  108 1    
    82   41  109 1    
    83   42   43 2    
    84   42   44 am   BACKBONE|DICT|INTERRES
    85   44   45 1    
    86   44  110 1    
    87   45   46 1    
    88   45   47 1    
    89   45  111 1    
    90   46  112 1    
    91   46  113 1    
    92   46  114 1    
    93   47   48 2    
    94   47   49 am   BACKBONE|DICT|INTERRES
    95   49   50 1    
    96   49  115 1    
    97   50   51 1    
    98   50   52 1    
    99   50  116 1    
   100   51  117 1    
   101   51  118 1    
   102   51  119 1    
   103   52   53 2    
   104   52   54 am   BACKBONE|DICT|INTERRES
   105   54   55 1    
   106   54  120 1    
   107   55   56 1    
   108   55   57 1    
   109   55  121 1    
   110   56  122 1    
   111   56  123 1    
   112   56  124 1    
   113   57   58 2    
   114   57   59 am   BACKBONE|DICT|INTERRES
   115   59   60 1    
   116   59  125 1    
   117   60   61 1    
   118   60   62 1    
   119   60  126 1    
   120   61  127 1    
   121   61  128 1    
   122   61  129 1    
   123   62   63 2    
   124   62   64 am   BACKBONE|DICT|INTERRES
   125   64   65 1    
   126   64  130 1    
   127   65   66 1    
   128   65   69 1    
   129   65  131 1    
   130   66   67 am   BACKBONE|DICT|INTERRES
   131   66   68 2    
   132   67  132 1    
   133   67  133 1    
   134   69   70 1    
   135   69  134 1    
   136   69  135 1    
   137   70   71 1    
   138   71  136 1    
   139   71  137 1    
@<TRIPOS>SUBSTRUCTURE
     1 UNK         1 GROUP             0       ****    0 ROOT    
