@<TRIPOS>MOLECULE
3R136
137   139    1
SMALL
USER_CHARGES


@<TRIPOS>ATOM
      1 CA         33.9336   20.9235   -2.3743 C.3       0 UNK        -0.1979 
      2 C          33.0630   21.2909   -1.1816 C.2       0 UNK         0.4864 
      3 O          33.3734   20.9032   -0.0543 O.2       0 UNK        -0.5359 
      4 N          31.9788   22.0356   -1.4196 N.am      1 UNK        -0.4318 
      5 CA         31.0381   22.5101   -0.4089 C.3       1 UNK         0.0824 
      6 C6         30.0110   21.4109   -0.0293 C.3       12 UNK        -0.0944 
      7 S7         28.8518   21.8580    1.3068 S.3       12 UNK        -0.2672 
      8 C8         29.9168   21.8151    2.7834 C.3       12 UNK         0.0333 
      9 C9         30.0825   23.2116    3.3638 C.ar      12 UNK        -0.0807 
     10 C10        31.2403   23.9556    3.1204 C.ar      12 UNK        -0.0894 
     11 C11        31.3709   25.2525    3.6251 C.ar      12 UNK        -0.0804 
     12 C12        30.3358   25.7996    4.3939 C.ar      12 UNK        -0.0824 
     13 C13        29.1945   25.0466    4.6871 C.ar      12 UNK        -0.0762 
     14 C14        29.0709   23.7579    4.1589 C.ar      12 UNK        -0.0782 
     15 C15        28.1284   25.5844    5.6339 C.3       12 UNK         0.0230 
     16 S16        26.4984   25.7628    4.8381 S.3       12 UNK        -0.2608 
     17 C17        26.4347   27.5392    4.4157 C.3       12 UNK        -0.0989 
     18 CA         26.5446   27.8114    2.8907 C.3       5 UNK         0.0716 
     19 N          25.5938   27.0377    2.0832 N.am      5 UNK        -0.4135 
     20 C          24.2571   27.1628    2.0629 C.2       4 UNK         0.5031 
     21 O          23.6288   27.8948    2.8297 O.2       4 UNK        -0.5229 
     22 CA         23.4938   26.3705    0.9756 C.3       4 UNK         0.0329 
     23 CB         22.2368   27.1221    0.4874 C.3       4 UNK        -0.2001 
     24 N          24.3214   25.9704   -0.1738 N.am      4 UNK        -0.4303 
     25 C          25.0482   26.7718   -0.9677 C.2       3 UNK         0.5044 
     26 O          25.1065   27.9975   -0.8525 O.2       3 UNK        -0.5152 
     27 CA         25.9401   26.0708   -2.0049 C.3       3 UNK         0.0319 
     28 CB         25.7001   26.6428   -3.4120 C.3       3 UNK        -0.2001 
     29 N          27.3639   26.1895   -1.6706 N.am      3 UNK        -0.4354 
     30 C          27.9338   25.8003   -0.5207 C.2       2 UNK         0.4964 
     31 O          27.3167   25.3089    0.4271 O.2       2 UNK        -0.5047 
     32 CA         29.4480   26.0125   -0.3926 C.3       2 UNK         0.0288 
     33 CB         29.7704   27.0437    0.7009 C.3       2 UNK        -0.2113 
     34 N          30.0979   24.7472   -0.0617 N.am      2 UNK        -0.4145 
     35 C          30.3972   23.7969   -0.9558 C.2       1 UNK         0.5006 
     36 O          30.2057   23.9105   -2.1708 O.2       1 UNK        -0.5103 
     37 C          26.5221   29.3275    2.5629 C.2       5 UNK         0.5055 
     38 O          26.9650   30.1274    3.3885 O.2       5 UNK        -0.5220 
     39 N          26.0221   29.7175    1.3768 N.am      6 UNK        -0.4450 
     40 CA         25.8614   31.1197    0.9707 C.3       6 UNK         0.0367 
     41 CB         24.9380   31.1957   -0.2553 C.3       6 UNK        -0.1929 
     42 C          27.1940   31.8309    0.6824 C.2       6 UNK         0.5070 
     43 O          27.2783   33.0485    0.8434 O.2       6 UNK        -0.5237 
     44 N          28.2074   31.0580    0.2777 N.am      7 UNK        -0.4739 
     45 CA         29.5748   31.5075    0.0238 C.3       7 UNK         0.0276 
     46 CB         29.8840   31.3521   -1.4777 C.3       7 UNK        -0.1927 
     47 C          30.5404   30.7160    0.9192 C.2       7 UNK         0.5013 
     48 O          31.5163   30.1538    0.4213 O.2       7 UNK        -0.5193 
     49 N          30.2213   30.6500    2.2221 N.am      8 UNK        -0.4253 
     50 CA         30.9698   29.9041    3.2399 C.3       8 UNK         0.0242 
     51 CB         30.2459   29.9946    4.5937 C.3       8 UNK        -0.2000 
     52 C          32.4378   30.3409    3.3790 C.2       8 UNK         0.4948 
     53 O          33.3136   29.4792    3.4552 O.2       8 UNK        -0.5275 
     54 N          32.6750   31.6626    3.3908 N.am      9 UNK        -0.4246 
     55 CA         33.9856   32.3241    3.4374 C.3       9 UNK         0.0261 
     56 CB         34.6551   32.2557    2.0456 C.3       9 UNK        -0.1959 
     57 C          34.8697   31.7896    4.5831 C.2       9 UNK         0.5033 
     58 O          34.5864   32.0814    5.7465 O.2       9 UNK        -0.5390 
     59 N          35.8863   30.9850    4.2417 N.am      10 UNK        -0.4215 
     60 CA         36.8003   30.3103    5.1678 C.3       10 UNK         0.0240 
     61 CB         37.8893   29.5854    4.3601 C.3       10 UNK        -0.1982 
     62 C          36.1179   29.3338    6.1456 C.2       10 UNK         0.4970 
     63 O          36.6721   29.0937    7.2194 O.2       10 UNK        -0.4916 
     64 N          34.9396   28.8054    5.7849 N.am      11 UNK        -0.4279 
     65 CA         34.0907   28.0042    6.6812 C.3       11 UNK         0.1003 
     66 C          33.3696   28.8396    7.7819 C.2       11 UNK         0.5709 
     67 N          33.3611   30.1678    7.7287 N.am      11 UNK        -0.7358 
     68 O          32.8087   28.2662    8.7126 O.2       11 UNK        -0.4999 
     69 C69        33.0673   27.1371    5.9030 C.3       12 UNK        -0.0954 
     70 S70        33.8284   25.9907    4.7052 S.3       12 UNK        -0.2268 
     71 C71        32.6329   26.0534    3.3308 C.3       12 UNK         0.0203 
     72 H72        33.9940   19.8402   -2.4748 H         1 UNK         0.0888 
     73 H73        33.5399   21.3288   -3.3063 H         1 UNK         0.0888 
     74 H74        34.9428   21.3103   -2.2357 H         1 UNK         0.0888 
     75 H75        31.7721   22.3693   -2.3538 H         1 UNK         0.3017 
     76 H76        31.6150   22.7789    0.4755 H         1 UNK         0.0873 
     77 H77        29.4211   21.1332   -0.9048 H         1 UNK         0.0745 
     78 H78        30.5320   20.5011    0.2734 H         1 UNK         0.0745 
     79 H79        30.8874   21.3761    2.5466 H         1 UNK         0.0705 
     80 H80        29.4617   21.1601    3.5279 H         1 UNK         0.0705 
     81 H81        32.0467   23.5270    2.5424 H         1 UNK         0.1334 
     82 H82        30.4297   26.7990    4.7919 H         1 UNK         0.1417 
     83 H83        28.1839   23.1764    4.3720 H         1 UNK         0.1562 
     84 H84        28.4403   26.5260    6.0873 H         1 UNK         0.0748 
     85 H85        28.0243   24.8814    6.4616 H         1 UNK         0.0748 
     86 H86        27.2229   28.0658    4.9554 H         1 UNK         0.0940 
     87 H87        25.4966   27.9403    4.8033 H         1 UNK         0.0940 
     88 H88        27.5300   27.4679    2.5800 H         1 UNK         0.0703 
     89 H89        26.0224   26.3764    1.4409 H         1 UNK         0.3081 
     90 H90        23.1656   25.4463    1.4534 H         1 UNK         0.0719 
     91 H91        22.4893   28.0909    0.0545 H         1 UNK         0.0809 
     92 H92        21.6984   26.5479   -0.2665 H         1 UNK         0.0809 
     93 H93        21.5424   27.3041    1.3086 H         1 UNK         0.0809 
     94 H94        24.3963   24.9729   -0.3215 H         1 UNK         0.2990 
     95 H95        25.6928   25.0074   -2.0246 H         1 UNK         0.0690 
     96 H96        26.2745   26.1026   -4.1648 H         1 UNK         0.0788 
     97 H97        25.9741   27.6972   -3.4722 H         1 UNK         0.0788 
     98 H98        24.6482   26.5641   -3.6904 H         1 UNK         0.0788 
     99 H99        27.9503   26.5982   -2.3837 H         1 UNK         0.2993 
    100 H100       29.8439   26.3847   -1.3404 H         1 UNK         0.0949 
    101 H101       30.8342   27.2827    0.7160 H         1 UNK         0.0767 
    102 H102       29.2313   27.9761    0.5332 H         1 UNK         0.0767 
    103 H103       29.5001   26.6775    1.6912 H         1 UNK         0.0767 
    104 H104       30.1988   24.5428    0.9229 H         1 UNK         0.3013 
    105 H105       25.6787   29.0183    0.7224 H         1 UNK         0.3121 
    106 H106       25.3772   31.6526    1.7920 H         1 UNK         0.0774 
    107 H107       24.7456   32.2322   -0.5353 H         1 UNK         0.0815 
    108 H108       25.3772   30.7004   -1.1223 H         1 UNK         0.0815 
    109 H109       23.9734   30.7283   -0.0563 H         1 UNK         0.0815 
    110 H110       28.0368   30.0665    0.1906 H         1 UNK         0.2987 
    111 H111       29.6934   32.5604    0.2890 H         1 UNK         0.0949 
    112 H112       29.8188   30.3116   -1.7983 H         1 UNK         0.0806 
    113 H113       29.1911   31.9338   -2.0858 H         1 UNK         0.0806 
    114 H114       30.8902   31.7041   -1.7090 H         1 UNK         0.0806 
    115 H115       29.3762   31.1120    2.5297 H         1 UNK         0.3010 
    116 H116       30.9702   28.8591    2.9286 H         1 UNK         0.0829 
    117 H117       29.2815   29.4896    4.5598 H         1 UNK         0.0813 
    118 H118       30.8243   29.5243    5.3893 H         1 UNK         0.0813 
    119 H119       30.0720   31.0289    4.8923 H         1 UNK         0.0813 
    120 H120       31.8760   32.2797    3.3595 H         1 UNK         0.3038 
    121 H121       33.7999   33.3753    3.6630 H         1 UNK         0.0769 
    122 H122       34.7917   31.2300    1.7003 H         1 UNK         0.0811 
    123 H123       35.6308   32.7439    2.0489 H         1 UNK         0.0811 
    124 H124       34.0475   32.7676    1.2991 H         1 UNK         0.0811 
    125 H125       35.9999   30.7698    3.2618 H         1 UNK         0.3204 
    126 H126       37.2795   31.0843    5.7708 H         1 UNK         0.0748 
    127 H127       38.6077   29.0986    5.0214 H         1 UNK         0.0771 
    128 H128       37.4660   28.8141    3.7150 H         1 UNK         0.0771 
    129 H129       38.4492   30.2799    3.7333 H         1 UNK         0.0771 
    130 H130       34.5293   29.0497    4.8872 H         1 UNK         0.2980 
    131 H131       34.7457   27.3151    7.2176 H         1 UNK         0.0545 
    132 H132       32.8910   30.6811    8.4566 H         1 UNK         0.3459 
    133 H133       33.8303   30.6722    6.9844 H         1 UNK         0.3459 
    134 H134       32.3734   27.7905    5.3772 H         1 UNK         0.0616 
    135 H135       32.4667   26.5368    6.5889 H         1 UNK         0.0616 
    136 H136       32.3787   27.0853    3.1002 H         1 UNK         0.0634 
    137 H137       33.1206   25.6646    2.4357 H         1 UNK         0.0634 
@<TRIPOS>BOND
     1    1    2 1    
     2    1   72 1    
     3    1   73 1    
     4    1   74 1    
     5    2    3 2    
     6    2    4 am   BACKBONE|DICT|INTERRES
     7    4    5 1    
     8    4   75 1    
     9    5    6 1    
    10    5   35 1    
    11    5   76 1    
    12    6    7 1    
    13    6   77 1    
    14    6   78 1    
    15    7    8 1    
    16    8    9 1    
    17    8   79 1    
    18    8   80 1    
    19    9   10 ar   
    20    9   14 ar   
    21   10   11 ar   
    22   10   81 1    
    23   11   12 ar   
    24   11   71 1    
    25   12   13 ar   
    26   12   82 1    
    27   13   14 ar   
    28   13   15 1    
    29   14   83 1    
    30   15   16 1    
    31   15   84 1    
    32   15   85 1    
    33   16   17 1    
    34   17   18 1    
    35   17   86 1    
    36   17   87 1    
    37   18   19 1    
    38   18   37 1    
    39   18   88 1    
    40   19   20 am   BACKBONE|DICT|INTERRES
    41   19   89 1    
    42   20   21 2    
    43   20   22 1    
    44   22   23 1    
    45   22   24 1    
    46   22   90 1    
    47   23   91 1    
    48   23   92 1    
    49   23   93 1    
    50   24   25 am   BACKBONE|DICT|INTERRES
    51   24   94 1    
    52   25   26 2    
    53   25   27 1    
    54   27   28 1    
    55   27   29 1    
    56   27   95 1    
    57   28   96 1    
    58   28   97 1    
    59   28   98 1    
    60   29   30 am   BACKBONE|DICT|INTERRES
    61   29   99 1    
    62   30   31 2    
    63   30   32 1    
    64   32   33 1    
    65   32   34 1    
    66   32  100 1    
    67   33  101 1    
    68   33  102 1    
    69   33  103 1    
    70   34   35 am   BACKBONE|DICT|INTERRES
    71   34  104 1    
    72   35   36 2    
    73   37   38 2    
    74   37   39 am   BACKBONE|DICT|INTERRES
    75   39   40 1    
    76   39  105 1    
    77   40   41 1    
    78   40   42 1    
    79   40  106 1    
    80   41  107 1    
    81   41  108 1    
    82   41  109 1    
    83   42   43 2    
    84   42   44 am   BACKBONE|DICT|INTERRES
    85   44   45 1    
    86   44  110 1    
    87   45   46 1    
    88   45   47 1    
    89   45  111 1    
    90   46  112 1    
    91   46  113 1    
    92   46  114 1    
    93   47   48 2    
    94   47   49 am   BACKBONE|DICT|INTERRES
    95   49   50 1    
    96   49  115 1    
    97   50   51 1    
    98   50   52 1    
    99   50  116 1    
   100   51  117 1    
   101   51  118 1    
   102   51  119 1    
   103   52   53 2    
   104   52   54 am   BACKBONE|DICT|INTERRES
   105   54   55 1    
   106   54  120 1    
   107   55   56 1    
   108   55   57 1    
   109   55  121 1    
   110   56  122 1    
   111   56  123 1    
   112   56  124 1    
   113   57   58 2    
   114   57   59 am   BACKBONE|DICT|INTERRES
   115   59   60 1    
   116   59  125 1    
   117   60   61 1    
   118   60   62 1    
   119   60  126 1    
   120   61  127 1    
   121   61  128 1    
   122   61  129 1    
   123   62   63 2    
   124   62   64 am   BACKBONE|DICT|INTERRES
   125   64   65 1    
   126   64  130 1    
   127   65   66 1    
   128   65   69 1    
   129   65  131 1    
   130   66   67 am   BACKBONE|DICT|INTERRES
   131   66   68 2    
   132   67  132 1    
   133   67  133 1    
   134   69   70 1    
   135   69  134 1    
   136   69  135 1    
   137   70   71 1    
   138   71  136 1    
   139   71  137 1    
@<TRIPOS>SUBSTRUCTURE
     1 UNK         1 GROUP             0       ****    0 ROOT    
