@<TRIPOS>MOLECULE
3R136
137   139    1
SMALL
USER_CHARGES


@<TRIPOS>ATOM
      1 CA         26.9982   23.0549   -2.9621 C.3       0 UNK        -0.1979 
      2 C          27.4942   23.0232   -1.5253 C.2       0 UNK         0.4864 
      3 O          27.2472   23.9657   -0.7735 O.2       0 UNK        -0.5359 
      4 N          28.1838   21.9451   -1.1274 N.am      1 UNK        -0.4318 
      5 CA         28.7444   21.7536    0.2174 C.3       1 UNK         0.0824 
      6 C6         29.6494   20.4960    0.2608 C.3       12 UNK        -0.0944 
      7 S7         30.6889   20.3661    1.7554 S.3       12 UNK        -0.2672 
      8 C8         32.2250   21.1940    1.2299 C.3       12 UNK         0.0333 
      9 C9         32.0565   22.7052    1.1707 C.ar      12 UNK        -0.0807 
     10 C10        31.9374   23.4389    2.3542 C.ar      12 UNK        -0.0894 
     11 C11        31.7643   24.8243    2.3160 C.ar      12 UNK        -0.0804 
     12 C12        31.7204   25.4792    1.0820 C.ar      12 UNK        -0.0824 
     13 C13        31.8354   24.7581   -0.1098 C.ar      12 UNK        -0.0762 
     14 C14        32.0114   23.3708   -0.0585 C.ar      12 UNK        -0.0782 
     15 C15        31.7771   25.4651   -1.4568 C.3       12 UNK         0.0230 
     16 S16        30.1907   25.1487   -2.2956 S.3       12 UNK        -0.2608 
     17 C17        29.2361   26.7166   -2.3188 C.3       12 UNK        -0.0989 
     18 CA         29.1258   27.5572   -1.0123 C.3       5 UNK         0.0716 
     19 N          28.7460   26.7198    0.1405 N.am      5 UNK        -0.4135 
     20 C          28.3475   27.1196    1.3571 C.2       4 UNK         0.5031 
     21 O          28.3106   28.2993    1.7098 O.2       4 UNK        -0.5229 
     22 CA         27.9277   26.0103    2.3383 C.3       4 UNK         0.0329 
     23 CB         27.7506   26.5199    3.7851 C.3       4 UNK        -0.2001 
     24 N          26.7262   25.3072    1.8823 N.am      4 UNK        -0.4303 
     25 C          25.5048   25.8160    1.6480 C.2       3 UNK         0.5044 
     26 O          25.1927   26.9889    1.8556 O.2       3 UNK        -0.5152 
     27 CA         24.4372   24.8626    1.0762 C.3       3 UNK         0.0319 
     28 CB         24.0509   25.2795   -0.3539 C.3       3 UNK        -0.2001 
     29 N          24.8819   23.4669    1.0556 N.am      3 UNK        -0.4354 
     30 C          24.6716   22.5782    2.0375 C.2       2 UNK         0.4964 
     31 O          24.0149   22.8213    3.0502 O.2       2 UNK        -0.5047 
     32 CA         25.3023   21.1806    1.8734 C.3       2 UNK         0.0288 
     33 CB         24.2684   20.1873    1.3185 C.3       2 UNK        -0.2113 
     34 N          26.4917   21.1643    1.0153 N.am      2 UNK        -0.4145 
     35 C          27.6585   21.7545    1.3169 C.2       1 UNK         0.5006 
     36 O          27.8624   22.3515    2.3748 O.2       1 UNK        -0.5103 
     37 C          30.2984   28.5645   -0.8351 C.2       5 UNK         0.5055 
     38 O          30.8960   28.9749   -1.8318 O.2       5 UNK        -0.5220 
     39 N          30.6183   28.9651    0.3985 N.am      6 UNK        -0.4450 
     40 CA         31.6678   29.9241    0.7424 C.3       6 UNK         0.0367 
     41 CB         33.0485   29.2369    0.7560 C.3       6 UNK        -0.1929 
     42 C          31.3285   30.6504    2.0538 C.2       6 UNK         0.5070 
     43 O          32.2270   30.9736    2.8327 O.2       6 UNK        -0.5237 
     44 N          30.0339   30.9120    2.2887 N.am      7 UNK        -0.4739 
     45 CA         29.5189   31.5979    3.4814 C.3       7 UNK         0.0276 
     46 CB         27.9837   31.6179    3.4348 C.3       7 UNK        -0.1927 
     47 C          30.0780   33.0205    3.6694 C.2       7 UNK         0.5013 
     48 O          30.2558   33.4550    4.8069 O.2       7 UNK        -0.5193 
     49 N          30.4195   33.6895    2.5581 N.am      8 UNK        -0.4253 
     50 CA         31.1227   34.9767    2.5271 C.3       8 UNK         0.0242 
     51 CB         31.1541   35.4985    1.0815 C.3       8 UNK        -0.2000 
     52 C          32.5499   34.9232    3.1103 C.2       8 UNK         0.4948 
     53 O          33.0483   35.9546    3.5614 O.2       8 UNK        -0.5275 
     54 N          33.1682   33.7332    3.1174 N.am      9 UNK        -0.4246 
     55 CA         34.4589   33.4487    3.7491 C.3       9 UNK         0.0261 
     56 CB         35.2885   32.5615    2.8025 C.3       9 UNK        -0.1959 
     57 C          34.2849   32.7844    5.1306 C.2       9 UNK         0.5033 
     58 O          35.2624   32.2632    5.6693 O.2       9 UNK        -0.5390 
     59 N          33.0570   32.8019    5.6752 N.am      10 UNK        -0.4215 
     60 CA         32.6288   32.2199    6.9519 C.3       10 UNK         0.0240 
     61 CB         33.3621   32.8757    8.1428 C.3       10 UNK        -0.1982 
     62 C          32.6746   30.6792    6.9908 C.2       10 UNK         0.4970 
     63 O          32.7505   30.1089    8.0810 O.2       10 UNK        -0.4916 
     64 N          32.5998   30.0241    5.8232 N.am      11 UNK        -0.4279 
     65 CA         32.4502   28.5671    5.7095 C.3       11 UNK         0.1003 
     66 C          31.0496   28.0962    6.1938 C.2       11 UNK         0.5709 
     67 N          30.9727   26.9656    6.8822 N.am      11 UNK        -0.7358 
     68 O          30.0333   28.7320    5.9220 O.2       11 UNK        -0.4999 
     69 C69        32.7468   28.1006    4.2633 C.3       12 UNK        -0.0954 
     70 S70        33.1825   26.3341    4.1467 S.3       12 UNK        -0.2268 
     71 C71        31.6035   25.6069    3.6080 C.3       12 UNK         0.0203 
     72 H72        27.4339   23.9049   -3.4864 H         1 UNK         0.0888 
     73 H73        27.2628   22.1482   -3.5056 H         1 UNK         0.0888 
     74 H74        25.9140   23.1613   -2.9819 H         1 UNK         0.0888 
     75 H75        28.3623   21.2036   -1.7899 H         1 UNK         0.3017 
     76 H76        29.3679   22.6280    0.4094 H         1 UNK         0.0873 
     77 H77        29.0459   19.5894    0.1856 H         1 UNK         0.0745 
     78 H78        30.3084   20.4825   -0.6088 H         1 UNK         0.0745 
     79 H79        32.5516   20.7940    0.2687 H         1 UNK         0.0705 
     80 H80        33.0143   20.9523    1.9432 H         1 UNK         0.0705 
     81 H81        31.9669   22.9257    3.3059 H         1 UNK         0.1334 
     82 H82        31.5950   26.5504    1.0537 H         1 UNK         0.1417 
     83 H83        32.0967   22.8097   -0.9793 H         1 UNK         0.1562 
     84 H84        32.5762   25.0757   -2.0893 H         1 UNK         0.0748 
     85 H85        31.9822   26.5284   -1.3616 H         1 UNK         0.0748 
     86 H86        29.5862   27.3175   -3.1600 H         1 UNK         0.0940 
     87 H87        28.2239   26.4284   -2.6077 H         1 UNK         0.0940 
     88 H88        28.2675   28.2157   -1.1605 H         1 UNK         0.0703 
     89 H89        28.7050   25.7284   -0.0636 H         1 UNK         0.3081 
     90 H90        28.7316   25.2725    2.3446 H         1 UNK         0.0719 
     91 H91        26.9467   27.2520    3.8655 H         1 UNK         0.0809 
     92 H92        27.5278   25.7004    4.4681 H         1 UNK         0.0809 
     93 H93        28.6577   27.0054    4.1455 H         1 UNK         0.0809 
     94 H94        26.8674   24.3331    1.6487 H         1 UNK         0.2990 
     95 H95        23.5489   24.9548    1.7047 H         1 UNK         0.0690 
     96 H96        24.9061   25.2507   -1.0300 H         1 UNK         0.0788 
     97 H97        23.6586   26.2972   -0.3711 H         1 UNK         0.0788 
     98 H98        23.2775   24.6287   -0.7619 H         1 UNK         0.0788 
     99 H99        25.4740   23.2083    0.2765 H         1 UNK         0.2993 
    100 H100       25.6031   20.8437    2.8681 H         1 UNK         0.0949 
    101 H101       23.9417   20.4622    0.3147 H         1 UNK         0.0767 
    102 H102       24.6723   19.1754    1.2764 H         1 UNK         0.0767 
    103 H103       23.3808   20.1532    1.9521 H         1 UNK         0.0767 
    104 H104       26.4015   20.7082    0.1188 H         1 UNK         0.3013 
    105 H105       29.9955   28.6798    1.1528 H         1 UNK         0.3121 
    106 H106       31.6908   30.7040   -0.0215 H         1 UNK         0.0774 
    107 H107       33.8382   29.9401    1.0221 H         1 UNK         0.0815 
    108 H108       33.0875   28.4146    1.4683 H         1 UNK         0.0815 
    109 H109       33.2989   28.8350   -0.2256 H         1 UNK         0.0815 
    110 H110       29.3432   30.5967    1.6210 H         1 UNK         0.2987 
    111 H111       29.8255   31.0137    4.3519 H         1 UNK         0.0949 
    112 H112       27.6113   32.1640    2.5674 H         1 UNK         0.0806 
    113 H113       27.5774   30.6065    3.3957 H         1 UNK         0.0806 
    114 H114       27.5724   32.0963    4.3249 H         1 UNK         0.0806 
    115 H115       30.2330   33.2504    1.6682 H         1 UNK         0.3010 
    116 H116       30.5508   35.6814    3.1348 H         1 UNK         0.0829 
    117 H117       31.6449   36.4715    1.0285 H         1 UNK         0.0813 
    118 H118       31.6980   34.8233    0.4194 H         1 UNK         0.0813 
    119 H119       30.1476   35.6245    0.6819 H         1 UNK         0.0813 
    120 H120       32.6759   32.9177    2.7656 H         1 UNK         0.3038 
    121 H121       35.0096   34.3779    3.9083 H         1 UNK         0.0769 
    122 H122       36.2958   32.4079    3.1915 H         1 UNK         0.0811 
    123 H123       35.3900   33.0171    1.8175 H         1 UNK         0.0811 
    124 H124       34.8376   31.5773    2.6731 H         1 UNK         0.0811 
    125 H125       32.3107   33.2436    5.1490 H         1 UNK         0.3204 
    126 H126       31.5729   32.4768    7.0478 H         1 UNK         0.0748 
    127 H127       32.9191   32.5712    9.0918 H         1 UNK         0.0771 
    128 H128       34.4158   32.5976    8.1745 H         1 UNK         0.0771 
    129 H129       33.3025   33.9631    8.0952 H         1 UNK         0.0771 
    130 H130       32.5249   30.5476    4.9596 H         1 UNK         0.2980 
    131 H131       33.2036   28.1246    6.3647 H         1 UNK         0.0545 
    132 H132       31.7995   26.4312    7.0978 H         1 UNK         0.3459 
    133 H133       30.0712   26.6455    7.1981 H         1 UNK         0.3459 
    134 H134       33.6029   28.6515    3.8703 H         1 UNK         0.0616 
    135 H135       31.9151   28.3317    3.5985 H         1 UNK         0.0616 
    136 H136       31.2272   24.9595    4.4016 H         1 UNK         0.0634 
    137 H137       30.8465   26.3779    3.4702 H         1 UNK         0.0634 
@<TRIPOS>BOND
     1    1    2 1    
     2    1   72 1    
     3    1   73 1    
     4    1   74 1    
     5    2    3 2    
     6    2    4 am   BACKBONE|DICT|INTERRES
     7    4    5 1    
     8    4   75 1    
     9    5    6 1    
    10    5   35 1    
    11    5   76 1    
    12    6    7 1    
    13    6   77 1    
    14    6   78 1    
    15    7    8 1    
    16    8    9 1    
    17    8   79 1    
    18    8   80 1    
    19    9   10 ar   
    20    9   14 ar   
    21   10   11 ar   
    22   10   81 1    
    23   11   12 ar   
    24   11   71 1    
    25   12   13 ar   
    26   12   82 1    
    27   13   14 ar   
    28   13   15 1    
    29   14   83 1    
    30   15   16 1    
    31   15   84 1    
    32   15   85 1    
    33   16   17 1    
    34   17   18 1    
    35   17   86 1    
    36   17   87 1    
    37   18   19 1    
    38   18   37 1    
    39   18   88 1    
    40   19   20 am   BACKBONE|DICT|INTERRES
    41   19   89 1    
    42   20   21 2    
    43   20   22 1    
    44   22   23 1    
    45   22   24 1    
    46   22   90 1    
    47   23   91 1    
    48   23   92 1    
    49   23   93 1    
    50   24   25 am   BACKBONE|DICT|INTERRES
    51   24   94 1    
    52   25   26 2    
    53   25   27 1    
    54   27   28 1    
    55   27   29 1    
    56   27   95 1    
    57   28   96 1    
    58   28   97 1    
    59   28   98 1    
    60   29   30 am   BACKBONE|DICT|INTERRES
    61   29   99 1    
    62   30   31 2    
    63   30   32 1    
    64   32   33 1    
    65   32   34 1    
    66   32  100 1    
    67   33  101 1    
    68   33  102 1    
    69   33  103 1    
    70   34   35 am   BACKBONE|DICT|INTERRES
    71   34  104 1    
    72   35   36 2    
    73   37   38 2    
    74   37   39 am   BACKBONE|DICT|INTERRES
    75   39   40 1    
    76   39  105 1    
    77   40   41 1    
    78   40   42 1    
    79   40  106 1    
    80   41  107 1    
    81   41  108 1    
    82   41  109 1    
    83   42   43 2    
    84   42   44 am   BACKBONE|DICT|INTERRES
    85   44   45 1    
    86   44  110 1    
    87   45   46 1    
    88   45   47 1    
    89   45  111 1    
    90   46  112 1    
    91   46  113 1    
    92   46  114 1    
    93   47   48 2    
    94   47   49 am   BACKBONE|DICT|INTERRES
    95   49   50 1    
    96   49  115 1    
    97   50   51 1    
    98   50   52 1    
    99   50  116 1    
   100   51  117 1    
   101   51  118 1    
   102   51  119 1    
   103   52   53 2    
   104   52   54 am   BACKBONE|DICT|INTERRES
   105   54   55 1    
   106   54  120 1    
   107   55   56 1    
   108   55   57 1    
   109   55  121 1    
   110   56  122 1    
   111   56  123 1    
   112   56  124 1    
   113   57   58 2    
   114   57   59 am   BACKBONE|DICT|INTERRES
   115   59   60 1    
   116   59  125 1    
   117   60   61 1    
   118   60   62 1    
   119   60  126 1    
   120   61  127 1    
   121   61  128 1    
   122   61  129 1    
   123   62   63 2    
   124   62   64 am   BACKBONE|DICT|INTERRES
   125   64   65 1    
   126   64  130 1    
   127   65   66 1    
   128   65   69 1    
   129   65  131 1    
   130   66   67 am   BACKBONE|DICT|INTERRES
   131   66   68 2    
   132   67  132 1    
   133   67  133 1    
   134   69   70 1    
   135   69  134 1    
   136   69  135 1    
   137   70   71 1    
   138   71  136 1    
   139   71  137 1    
@<TRIPOS>SUBSTRUCTURE
     1 UNK         1 GROUP             0       ****    0 ROOT    
