@<TRIPOS>MOLECULE
3R136
137   139    1
SMALL
USER_CHARGES


@<TRIPOS>ATOM
      1 CA         26.7918   17.9529   -2.5305 C.3       0 UNK        -0.1979 
      2 C          27.6716   18.6355   -1.4937 C.2       0 UNK         0.4864 
      3 O          28.6920   18.0736   -1.0937 O.2       0 UNK        -0.5359 
      4 N          27.2842   19.8424   -1.0561 N.am      1 UNK        -0.4318 
      5 CA         28.0130   20.6512   -0.0687 C.3       1 UNK         0.0824 
      6 C6         27.1077   21.7677    0.5175 C.3       12 UNK        -0.0944 
      7 S7         27.4827   22.1463    2.2617 S.3       12 UNK        -0.2672 
      8 C8         28.3211   23.7493    2.0943 C.3       12 UNK         0.0333 
      9 C9         28.6578   24.3408    3.4527 C.ar      12 UNK        -0.0807 
     10 C10        29.8620   24.0168    4.0812 C.ar      12 UNK        -0.0894 
     11 C11        30.1685   24.5367    5.3430 C.ar      12 UNK        -0.0804 
     12 C12        29.2614   25.4026    5.9657 C.ar      12 UNK        -0.0824 
     13 C13        28.0449   25.7289    5.3537 C.ar      12 UNK        -0.0762 
     14 C14        27.7525   25.1900    4.0944 C.ar      12 UNK        -0.0782 
     15 C15        27.0216   26.5781    6.1103 C.3       12 UNK         0.0230 
     16 S16        26.0366   27.6953    5.0515 S.3       12 UNK        -0.2608 
     17 C17        26.9734   29.2586    5.1468 C.3       12 UNK        -0.0989 
     18 CA         28.3452   29.2239    4.4221 C.3       5 UNK         0.0716 
     19 N          28.2189   28.6963    3.0584 N.am      5 UNK        -0.4135 
     20 C          29.2209   28.2543    2.2918 C.2       4 UNK         0.5031 
     21 O          30.4150   28.3293    2.5967 O.2       4 UNK        -0.5229 
     22 CA         28.8151   27.6050    0.9625 C.3       4 UNK         0.0329 
     23 CB         28.3260   28.6407   -0.0643 C.3       4 UNK        -0.2001 
     24 N          29.9650   26.8825    0.4308 N.am      4 UNK        -0.4303 
     25 C          29.9130   25.8055   -0.3579 C.2       3 UNK         0.5044 
     26 O          28.8588   25.3352   -0.7935 O.2       3 UNK        -0.5152 
     27 CA         31.2626   25.1385   -0.6925 C.3       3 UNK         0.0319 
     28 CB         32.1968   25.0630    0.5298 C.3       3 UNK        -0.2001 
     29 N          31.0598   23.7840   -1.2029 N.am      3 UNK        -0.4354 
     30 C          30.8488   23.4525   -2.4803 C.2       2 UNK         0.4964 
     31 O          30.9160   24.2492   -3.4174 O.2       2 UNK        -0.5047 
     32 CA         30.4921   21.9821   -2.7673 C.3       2 UNK         0.0288 
     33 CB         31.7377   21.0763   -2.6931 C.3       2 UNK        -0.2113 
     34 N          29.3864   21.4525   -1.9521 N.am      2 UNK        -0.4145 
     35 C          29.3357   21.2247   -0.6281 C.2       1 UNK         0.5006 
     36 O          30.2713   21.4477    0.1428 O.2       1 UNK        -0.5103 
     37 C          29.0433   30.6033    4.4775 C.2       5 UNK         0.5055 
     38 O          29.4277   31.1539    3.4412 O.2       5 UNK        -0.5220 
     39 N          29.2013   31.1481    5.6944 N.am      6 UNK        -0.4450 
     40 CA         29.8863   32.4124    6.0157 C.3       6 UNK         0.0367 
     41 CB         29.8032   32.6563    7.5308 C.3       6 UNK        -0.1929 
     42 C          29.4026   33.6561    5.2497 C.2       6 UNK         0.5070 
     43 O          30.1915   34.5770    5.0393 O.2       6 UNK        -0.5237 
     44 N          28.1327   33.6574    4.8293 N.am      7 UNK        -0.4739 
     45 CA         27.5335   34.7126    4.0107 C.3       7 UNK         0.0276 
     46 CB         26.0030   34.6163    4.1312 C.3       7 UNK        -0.1927 
     47 C          27.9579   34.6719    2.5285 C.2       7 UNK         0.5013 
     48 O          27.6862   35.6405    1.8170 O.2       7 UNK        -0.5193 
     49 N          28.5692   33.5663    2.0772 N.am      8 UNK        -0.4253 
     50 CA         28.8662   33.3009    0.6694 C.3       8 UNK         0.0242 
     51 CB         27.9087   32.2146    0.1546 C.3       8 UNK        -0.2000 
     52 C          30.3309   32.9100    0.4248 C.2       8 UNK         0.4948 
     53 O          30.9675   33.5273   -0.4306 O.2       8 UNK        -0.5275 
     54 N          30.8371   31.8914    1.1357 N.am      9 UNK        -0.4246 
     55 CA         32.1632   31.3062    0.8851 C.3       9 UNK         0.0261 
     56 CB         32.0360   30.1510   -0.1254 C.3       9 UNK        -0.1959 
     57 C          32.9155   30.8475    2.1454 C.2       9 UNK         0.5033 
     58 O          34.0903   30.4957    2.0242 O.2       9 UNK        -0.5390 
     59 N          32.2610   30.8397    3.3168 N.am      10 UNK        -0.4215 
     60 CA         32.8157   30.4770    4.6314 C.3       10 UNK         0.0240 
     61 CB         33.7654   31.5856    5.1343 C.3       10 UNK        -0.1982 
     62 C          33.4505   29.0747    4.6823 C.2       10 UNK         0.4970 
     63 O          34.4953   28.8950    5.3108 O.2       10 UNK        -0.4916 
     64 N          32.8039   28.1112    4.0146 N.am      11 UNK        -0.4279 
     65 CA         33.2583   26.7240    3.8527 C.3       11 UNK         0.1003 
     66 C          34.5261   26.5625    2.9527 C.2       11 UNK         0.5709 
     67 N          34.9546   27.5797    2.2118 N.am      11 UNK        -0.7358 
     68 O          35.1182   25.4884    2.8904 O.2       11 UNK        -0.4999 
     69 C69        33.3519   25.9779    5.2158 C.3       12 UNK        -0.0954 
     70 S70        32.9486   24.2047    5.0880 S.3       12 UNK        -0.2268 
     71 C71        31.4243   24.0818    6.0808 C.3       12 UNK         0.0203 
     72 H72        25.9231   18.5574   -2.7912 H         1 UNK         0.0888 
     73 H73        27.3607   17.7666   -3.4410 H         1 UNK         0.0888 
     74 H74        26.4362   16.9962   -2.1489 H         1 UNK         0.0888 
     75 H75        26.4283   20.2444   -1.4126 H         1 UNK         0.3017 
     76 H76        28.2868   19.9714    0.7418 H         1 UNK         0.0873 
     77 H77        27.1349   22.6753   -0.0900 H         1 UNK         0.0745 
     78 H78        26.0647   21.4466    0.5071 H         1 UNK         0.0745 
     79 H79        27.6830   24.4353    1.5357 H         1 UNK         0.0705 
     80 H80        29.2314   23.6180    1.5091 H         1 UNK         0.0705 
     81 H81        30.5477   23.3321    3.6005 H         1 UNK         0.1334 
     82 H82        29.4815   25.7847    6.9532 H         1 UNK         0.1417 
     83 H83        26.8055   25.4075    3.6200 H         1 UNK         0.1562 
     84 H84        27.5060   27.1588    6.8967 H         1 UNK         0.0748 
     85 H85        26.3342   25.8986    6.6156 H         1 UNK         0.0748 
     86 H86        27.0868   29.5104    6.2026 H         1 UNK         0.0940 
     87 H87        26.3408   30.0398    4.7199 H         1 UNK         0.0940 
     88 H88        28.9958   28.5354    4.9655 H         1 UNK         0.0703 
     89 H89        27.2733   28.6063    2.7186 H         1 UNK         0.3081 
     90 H90        28.0129   26.8942    1.1712 H         1 UNK         0.0719 
     91 H91        29.0708   29.4155   -0.2454 H         1 UNK         0.0809 
     92 H92        28.0962   28.1721   -1.0214 H         1 UNK         0.0809 
     93 H93        27.4115   29.1264    0.2758 H         1 UNK         0.0809 
     94 H94        30.8492   27.1807    0.8220 H         1 UNK         0.2990 
     95 H95        31.7492   25.7446   -1.4594 H         1 UNK         0.0690 
     96 H96        33.0997   24.4944    0.3050 H         1 UNK         0.0788 
     97 H97        31.7120   24.5908    1.3858 H         1 UNK         0.0788 
     98 H98        32.5228   26.0571    0.8341 H         1 UNK         0.0788 
     99 H99        30.9285   23.0472   -0.5140 H         1 UNK         0.2993 
    100 H100       30.1336   21.9500   -3.7977 H         1 UNK         0.0949 
    101 H101       32.1748   21.0585   -1.6944 H         1 UNK         0.0767 
    102 H102       31.4968   20.0500   -2.9707 H         1 UNK         0.0767 
    103 H103       32.5120   21.4247   -3.3780 H         1 UNK         0.0767 
    104 H104       28.5436   21.2515   -2.4718 H         1 UNK         0.3013 
    105 H105       28.8583   30.6327    6.4923 H         1 UNK         0.3121 
    106 H106       30.9374   32.2993    5.7591 H         1 UNK         0.0774 
    107 H107       30.3182   33.5775    7.8082 H         1 UNK         0.0815 
    108 H108       28.7702   32.7474    7.8691 H         1 UNK         0.0815 
    109 H109       30.2724   31.8475    8.0913 H         1 UNK         0.0815 
    110 H110       27.5506   32.8637    5.0528 H         1 UNK         0.2987 
    111 H111       27.8466   35.6809    4.4082 H         1 UNK         0.0949 
    112 H112       25.5150   35.4132    3.5681 H         1 UNK         0.0806 
    113 H113       25.6261   33.6681    3.7456 H         1 UNK         0.0806 
    114 H114       25.6788   34.7118    5.1677 H         1 UNK         0.0806 
    115 H115       28.7932   32.8267    2.7357 H         1 UNK         0.3010 
    116 H116       28.6904   34.1980    0.0717 H         1 UNK         0.0829 
    117 H117       26.8839   32.5839    0.1130 H         1 UNK         0.0813 
    118 H118       28.1772   31.8878   -0.8511 H         1 UNK         0.0813 
    119 H119       27.9176   31.3418    0.8060 H         1 UNK         0.0813 
    120 H120       30.2555   31.4508    1.8441 H         1 UNK         0.3038 
    121 H121       32.8077   32.0674    0.4403 H         1 UNK         0.0769 
    122 H122       33.0141   29.7395   -0.3781 H         1 UNK         0.0811 
    123 H123       31.5765   30.4830   -1.0564 H         1 UNK         0.0811 
    124 H124       31.4359   29.3362    0.2748 H         1 UNK         0.0811 
    125 H125       31.2722   31.0713    3.3134 H         1 UNK         0.3204 
    126 H126       31.9768   30.4148    5.3216 H         1 UNK         0.0748 
    127 H127       34.0759   31.4008    6.1634 H         1 UNK         0.0771 
    128 H128       34.6691   31.6455    4.5266 H         1 UNK         0.0771 
    129 H129       33.2852   32.5639    5.1127 H         1 UNK         0.0771 
    130 H130       31.9480   28.3422    3.5110 H         1 UNK         0.2980 
    131 H131       32.4521   26.2604    3.2842 H         1 UNK         0.0545 
    132 H132       35.7668   27.4495    1.6309 H         1 UNK         0.3459 
    133 H133       34.5150   28.4919    2.2593 H         1 UNK         0.3459 
    134 H134       34.3461   26.0843    5.6530 H         1 UNK         0.0616 
    135 H135       32.6667   26.4270    5.9362 H         1 UNK         0.0616 
    136 H136       31.2884   23.0372    6.3635 H         1 UNK         0.0634 
    137 H137       31.5565   24.6315    7.0139 H         1 UNK         0.0634 
@<TRIPOS>BOND
     1    1    2 1    
     2    1   72 1    
     3    1   73 1    
     4    1   74 1    
     5    2    3 2    
     6    2    4 am   BACKBONE|DICT|INTERRES
     7    4    5 1    
     8    4   75 1    
     9    5    6 1    
    10    5   35 1    
    11    5   76 1    
    12    6    7 1    
    13    6   77 1    
    14    6   78 1    
    15    7    8 1    
    16    8    9 1    
    17    8   79 1    
    18    8   80 1    
    19    9   10 ar   
    20    9   14 ar   
    21   10   11 ar   
    22   10   81 1    
    23   11   12 ar   
    24   11   71 1    
    25   12   13 ar   
    26   12   82 1    
    27   13   14 ar   
    28   13   15 1    
    29   14   83 1    
    30   15   16 1    
    31   15   84 1    
    32   15   85 1    
    33   16   17 1    
    34   17   18 1    
    35   17   86 1    
    36   17   87 1    
    37   18   19 1    
    38   18   37 1    
    39   18   88 1    
    40   19   20 am   BACKBONE|DICT|INTERRES
    41   19   89 1    
    42   20   21 2    
    43   20   22 1    
    44   22   23 1    
    45   22   24 1    
    46   22   90 1    
    47   23   91 1    
    48   23   92 1    
    49   23   93 1    
    50   24   25 am   BACKBONE|DICT|INTERRES
    51   24   94 1    
    52   25   26 2    
    53   25   27 1    
    54   27   28 1    
    55   27   29 1    
    56   27   95 1    
    57   28   96 1    
    58   28   97 1    
    59   28   98 1    
    60   29   30 am   BACKBONE|DICT|INTERRES
    61   29   99 1    
    62   30   31 2    
    63   30   32 1    
    64   32   33 1    
    65   32   34 1    
    66   32  100 1    
    67   33  101 1    
    68   33  102 1    
    69   33  103 1    
    70   34   35 am   BACKBONE|DICT|INTERRES
    71   34  104 1    
    72   35   36 2    
    73   37   38 2    
    74   37   39 am   BACKBONE|DICT|INTERRES
    75   39   40 1    
    76   39  105 1    
    77   40   41 1    
    78   40   42 1    
    79   40  106 1    
    80   41  107 1    
    81   41  108 1    
    82   41  109 1    
    83   42   43 2    
    84   42   44 am   BACKBONE|DICT|INTERRES
    85   44   45 1    
    86   44  110 1    
    87   45   46 1    
    88   45   47 1    
    89   45  111 1    
    90   46  112 1    
    91   46  113 1    
    92   46  114 1    
    93   47   48 2    
    94   47   49 am   BACKBONE|DICT|INTERRES
    95   49   50 1    
    96   49  115 1    
    97   50   51 1    
    98   50   52 1    
    99   50  116 1    
   100   51  117 1    
   101   51  118 1    
   102   51  119 1    
   103   52   53 2    
   104   52   54 am   BACKBONE|DICT|INTERRES
   105   54   55 1    
   106   54  120 1    
   107   55   56 1    
   108   55   57 1    
   109   55  121 1    
   110   56  122 1    
   111   56  123 1    
   112   56  124 1    
   113   57   58 2    
   114   57   59 am   BACKBONE|DICT|INTERRES
   115   59   60 1    
   116   59  125 1    
   117   60   61 1    
   118   60   62 1    
   119   60  126 1    
   120   61  127 1    
   121   61  128 1    
   122   61  129 1    
   123   62   63 2    
   124   62   64 am   BACKBONE|DICT|INTERRES
   125   64   65 1    
   126   64  130 1    
   127   65   66 1    
   128   65   69 1    
   129   65  131 1    
   130   66   67 am   BACKBONE|DICT|INTERRES
   131   66   68 2    
   132   67  132 1    
   133   67  133 1    
   134   69   70 1    
   135   69  134 1    
   136   69  135 1    
   137   70   71 1    
   138   71  136 1    
   139   71  137 1    
@<TRIPOS>SUBSTRUCTURE
     1 UNK         1 GROUP             0       ****    0 ROOT    
