@<TRIPOS>MOLECULE
3R136
137   139    1
SMALL
USER_CHARGES


@<TRIPOS>ATOM
      1 CA         30.9152   26.3017   -1.9682 C.3       0 UNK        -0.1979 
      2 C          29.8103   25.6889   -1.1229 C.2       0 UNK         0.4864 
      3 O          28.7396   26.2835   -0.9970 O.2       0 UNK        -0.5359 
      4 N          30.0586   24.5073   -0.5421 N.am      1 UNK        -0.4318 
      5 CA         29.1465   23.7737    0.3475 C.3       1 UNK         0.0824 
      6 C6         29.7588   22.4401    0.8453 C.3       12 UNK        -0.0944 
      7 S7         31.4296   22.6288    1.5554 S.3       12 UNK        -0.2672 
      8 C8         31.1422   22.2648    3.3133 C.3       12 UNK         0.0333 
      9 C9         30.6437   23.4875    4.0672 C.ar      12 UNK        -0.0807 
     10 C10        31.5621   24.4222    4.5523 C.ar      12 UNK        -0.0894 
     11 C11        31.1354   25.5327    5.2929 C.ar      12 UNK        -0.0804 
     12 C12        29.7659   25.6959    5.5334 C.ar      12 UNK        -0.0824 
     13 C13        28.8360   24.7603    5.0648 C.ar      12 UNK        -0.0762 
     14 C14        29.2815   23.6612    4.3245 C.ar      12 UNK        -0.0782 
     15 C15        27.3615   24.8877    5.4298 C.3       12 UNK         0.0230 
     16 S16        26.2842   25.1388    3.9834 S.3       12 UNK        -0.2608 
     17 C17        26.6579   26.8658    3.5338 C.3       12 UNK        -0.0989 
     18 CA         27.0073   27.0034    2.0283 C.3       5 UNK         0.0716 
     19 N          25.9210   26.5932    1.1320 N.am      5 UNK        -0.4135 
     20 C          24.7427   27.2141    0.9702 C.2       4 UNK         0.5031 
     21 O          24.3991   28.2187    1.5969 O.2       4 UNK        -0.5229 
     22 CA         23.7913   26.6037   -0.0793 C.3       4 UNK         0.0329 
     23 CB         22.5801   27.5073   -0.3951 C.3       4 UNK        -0.2001 
     24 N          24.4800   26.2164   -1.3161 N.am      4 UNK        -0.4303 
     25 C          25.2136   26.9943   -2.1276 C.2       3 UNK         0.5044 
     26 O          25.3752   28.2032   -1.9574 O.2       3 UNK        -0.5152 
     27 CA         25.8926   26.2893   -3.3200 C.3       3 UNK         0.0319 
     28 CB         26.9729   27.1585   -3.9906 C.3       3 UNK        -0.2001 
     29 N          26.4947   25.0139   -2.9222 N.am      3 UNK        -0.4354 
     30 C          25.8481   23.8424   -2.8444 C.2       2 UNK         0.4964 
     31 O          24.6560   23.7097   -3.1208 O.2       2 UNK        -0.5047 
     32 CA         26.6365   22.6216   -2.3399 C.3       2 UNK         0.0288 
     33 CB         27.0788   21.7441   -3.5222 C.3       2 UNK        -0.2113 
     34 N          27.8095   22.9608   -1.5304 N.am      2 UNK        -0.4145 
     35 C          27.7745   23.5121   -0.3076 C.2       1 UNK         0.5006 
     36 O          26.7388   23.8468    0.2709 O.2       1 UNK        -0.5103 
     37 C          27.5504   28.4009    1.6657 C.2       5 UNK         0.5055 
     38 O          27.6654   29.2696    2.5310 O.2       5 UNK        -0.5220 
     39 N          27.9448   28.5785    0.3971 N.am      6 UNK        -0.4450 
     40 CA         28.6742   29.7573   -0.0877 C.3       6 UNK         0.0367 
     41 CB         28.7212   29.7335   -1.6233 C.3       6 UNK        -0.1929 
     42 C          30.0969   29.8579    0.4990 C.2       6 UNK         0.5070 
     43 O          30.6983   30.9302    0.4595 O.2       6 UNK        -0.5237 
     44 N          30.5931   28.7445    1.0569 N.am      7 UNK        -0.4739 
     45 CA         31.8285   28.6448    1.8301 C.3       7 UNK         0.0276 
     46 CB         32.2290   27.1632    1.9191 C.3       7 UNK        -0.1927 
     47 C          31.7379   29.2721    3.2373 C.2       7 UNK         0.5013 
     48 O          32.7710   29.3833    3.8997 O.2       7 UNK        -0.5193 
     49 N          30.5395   29.6769    3.6923 N.am      8 UNK        -0.4253 
     50 CA         30.3321   30.3799    4.9636 C.3       8 UNK         0.0242 
     51 CB         28.8389   30.6829    5.1591 C.3       8 UNK        -0.2000 
     52 C          31.1686   31.6699    5.0390 C.2       8 UNK         0.4948 
     53 O          31.1048   32.4902    4.1221 O.2       8 UNK        -0.5275 
     54 N          31.9722   31.7793    6.1053 N.am      9 UNK        -0.4246 
     55 CA         32.9971   32.7989    6.3731 C.3       9 UNK         0.0261 
     56 CB         32.4182   34.2294    6.3359 C.3       9 UNK        -0.1959 
     57 C          34.2797   32.6740    5.5218 C.2       9 UNK         0.5033 
     58 O          35.2476   33.3733    5.8262 O.2       9 UNK        -0.5390 
     59 N          34.3090   31.7837    4.5180 N.am      10 UNK        -0.4215 
     60 CA         35.5282   31.3939    3.8015 C.3       10 UNK         0.0240 
     61 CB         35.2019   31.0358    2.3419 C.3       10 UNK        -0.1982 
     62 C          36.2245   30.2232    4.5158 C.2       10 UNK         0.4970 
     63 O          37.4552   30.1761    4.5229 O.2       10 UNK        -0.4916 
     64 N          35.4338   29.3238    5.1227 N.am      11 UNK        -0.4279 
     65 CA         35.8816   28.2662    6.0422 C.3       11 UNK         0.1003 
     66 C          36.7083   28.8200    7.2376 C.2       11 UNK         0.5709 
     67 N          37.7802   28.1402    7.6220 N.am      11 UNK        -0.7358 
     68 O          36.3575   29.8306    7.8447 O.2       11 UNK        -0.4999 
     69 C69        34.6844   27.4398    6.5815 C.3       12 UNK        -0.0954 
     70 S70        33.8290   26.4759    5.2943 S.3       12 UNK        -0.2268 
     71 C71        32.1111   26.5349    5.9172 C.3       12 UNK         0.0203 
     72 H72        31.2483   27.2403   -1.5263 H         1 UNK         0.0888 
     73 H73        31.7777   25.6410   -2.0528 H         1 UNK         0.0888 
     74 H74        30.5462   26.5093   -2.9721 H         1 UNK         0.0888 
     75 H75        30.9655   24.0783   -0.6636 H         1 UNK         0.3017 
     76 H76        28.9772   24.4055    1.2207 H         1 UNK         0.0873 
     77 H77        29.0990   21.9745    1.5797 H         1 UNK         0.0745 
     78 H78        29.8432   21.7236    0.0259 H         1 UNK         0.0745 
     79 H79        30.4489   21.4291    3.4194 H         1 UNK         0.0705 
     80 H80        32.0819   21.9280    3.7538 H         1 UNK         0.0705 
     81 H81        32.6130   24.2576    4.3636 H         1 UNK         0.1334 
     82 H82        29.4268   26.5361    6.1242 H         1 UNK         0.1417 
     83 H83        28.5671   22.9295    3.9722 H         1 UNK         0.1562 
     84 H84        27.2004   25.6983    6.1423 H         1 UNK         0.0748 
     85 H85        27.0488   23.9747    5.9384 H         1 UNK         0.0748 
     86 H86        27.4885   27.2173    4.1487 H         1 UNK         0.0940 
     87 H87        25.8043   27.4928    3.7967 H         1 UNK         0.0940 
     88 H88        27.8313   26.3187    1.8283 H         1 UNK         0.0703 
     89 H89        26.0984   25.7455    0.6024 H         1 UNK         0.3081 
     90 H90        23.4090   25.6813    0.3605 H         1 UNK         0.0719 
     91 H91        22.8898   28.4713   -0.8003 H         1 UNK         0.0809 
     92 H92        21.9126   27.0383   -1.1180 H         1 UNK         0.0809 
     93 H93        21.9947   27.7053    0.5036 H         1 UNK         0.0809 
     94 H94        24.4064   25.2391   -1.5721 H         1 UNK         0.2990 
     95 H95        25.1137   26.1027   -4.0622 H         1 UNK         0.0690 
     96 H96        27.4062   26.6551   -4.8549 H         1 UNK         0.0788 
     97 H97        27.7826   27.3951   -3.3008 H         1 UNK         0.0788 
     98 H98        26.5566   28.1029   -4.3435 H         1 UNK         0.0788 
     99 H99        27.4484   25.0613   -2.5902 H         1 UNK         0.2993 
    100 H100       25.9577   22.0378   -1.7141 H         1 UNK         0.0949 
    101 H101       26.2228   21.4472   -4.1302 H         1 UNK         0.0767 
    102 H102       27.7766   22.2688   -4.1763 H         1 UNK         0.0767 
    103 H103       27.5616   20.8288   -3.1790 H         1 UNK         0.0767 
    104 H104       28.7115   22.7499   -1.9326 H         1 UNK         0.3013 
    105 H105       27.8927   27.7882   -0.2433 H         1 UNK         0.3121 
    106 H106       28.1255   30.6478    0.2262 H         1 UNK         0.0774 
    107 H107       29.2683   28.8684   -1.9972 H         1 UNK         0.0815 
    108 H108       29.2156   30.6246   -2.0121 H         1 UNK         0.0815 
    109 H109       27.7184   29.7081   -2.0498 H         1 UNK         0.0815 
    110 H110       30.0230   27.9133    1.0128 H         1 UNK         0.2987 
    111 H111       32.6104   29.1812    1.2891 H         1 UNK         0.0949 
    112 H112       31.4906   26.5759    2.4664 H         1 UNK         0.0806 
    113 H113       32.3463   26.7193    0.9307 H         1 UNK         0.0806 
    114 H114       33.1831   27.0489    2.4345 H         1 UNK         0.0806 
    115 H115       29.7262   29.5757    3.0970 H         1 UNK         0.3010 
    116 H116       30.6458   29.7059    5.7626 H         1 UNK         0.0829 
    117 H117       28.4481   31.3098    4.3564 H         1 UNK         0.0813 
    118 H118       28.2483   29.7669    5.1861 H         1 UNK         0.0813 
    119 H119       28.6647   31.2083    6.0989 H         1 UNK         0.0813 
    120 H120       31.9402   31.0340    6.7879 H         1 UNK         0.3038 
    121 H121       33.3158   32.6130    7.4001 H         1 UNK         0.0769 
    122 H122       32.1576   34.5399    5.3239 H         1 UNK         0.0811 
    123 H123       33.1438   34.9509    6.7134 H         1 UNK         0.0811 
    124 H124       31.5258   34.3146    6.9557 H         1 UNK         0.0811 
    125 H125       33.4847   31.2216    4.3334 H         1 UNK         0.3204 
    126 H126       36.2219   32.2372    3.7846 H         1 UNK         0.0748 
    127 H127       36.1187   30.8998    1.7670 H         1 UNK         0.0771 
    128 H128       34.6368   30.1084    2.2624 H         1 UNK         0.0771 
    129 H129       34.6275   31.8246    1.8557 H         1 UNK         0.0771 
    130 H130       34.4332   29.3782    4.9661 H         1 UNK         0.2980 
    131 H131       36.5275   27.6011    5.4660 H         1 UNK         0.0545 
    132 H132       38.3176   28.4761    8.4058 H         1 UNK         0.3459 
    133 H133       38.0677   27.3028    7.1397 H         1 UNK         0.3459 
    134 H134       35.0178   26.7266    7.3380 H         1 UNK         0.0616 
    135 H135       33.9689   28.0985    7.0778 H         1 UNK         0.0616 
    136 H136       32.1279   26.3557    6.9931 H         1 UNK         0.0634 
    137 H137       31.7326   27.5469    5.7757 H         1 UNK         0.0634 
@<TRIPOS>BOND
     1    1    2 1    
     2    1   72 1    
     3    1   73 1    
     4    1   74 1    
     5    2    3 2    
     6    2    4 am   BACKBONE|DICT|INTERRES
     7    4    5 1    
     8    4   75 1    
     9    5    6 1    
    10    5   35 1    
    11    5   76 1    
    12    6    7 1    
    13    6   77 1    
    14    6   78 1    
    15    7    8 1    
    16    8    9 1    
    17    8   79 1    
    18    8   80 1    
    19    9   10 ar   
    20    9   14 ar   
    21   10   11 ar   
    22   10   81 1    
    23   11   12 ar   
    24   11   71 1    
    25   12   13 ar   
    26   12   82 1    
    27   13   14 ar   
    28   13   15 1    
    29   14   83 1    
    30   15   16 1    
    31   15   84 1    
    32   15   85 1    
    33   16   17 1    
    34   17   18 1    
    35   17   86 1    
    36   17   87 1    
    37   18   19 1    
    38   18   37 1    
    39   18   88 1    
    40   19   20 am   BACKBONE|DICT|INTERRES
    41   19   89 1    
    42   20   21 2    
    43   20   22 1    
    44   22   23 1    
    45   22   24 1    
    46   22   90 1    
    47   23   91 1    
    48   23   92 1    
    49   23   93 1    
    50   24   25 am   BACKBONE|DICT|INTERRES
    51   24   94 1    
    52   25   26 2    
    53   25   27 1    
    54   27   28 1    
    55   27   29 1    
    56   27   95 1    
    57   28   96 1    
    58   28   97 1    
    59   28   98 1    
    60   29   30 am   BACKBONE|DICT|INTERRES
    61   29   99 1    
    62   30   31 2    
    63   30   32 1    
    64   32   33 1    
    65   32   34 1    
    66   32  100 1    
    67   33  101 1    
    68   33  102 1    
    69   33  103 1    
    70   34   35 am   BACKBONE|DICT|INTERRES
    71   34  104 1    
    72   35   36 2    
    73   37   38 2    
    74   37   39 am   BACKBONE|DICT|INTERRES
    75   39   40 1    
    76   39  105 1    
    77   40   41 1    
    78   40   42 1    
    79   40  106 1    
    80   41  107 1    
    81   41  108 1    
    82   41  109 1    
    83   42   43 2    
    84   42   44 am   BACKBONE|DICT|INTERRES
    85   44   45 1    
    86   44  110 1    
    87   45   46 1    
    88   45   47 1    
    89   45  111 1    
    90   46  112 1    
    91   46  113 1    
    92   46  114 1    
    93   47   48 2    
    94   47   49 am   BACKBONE|DICT|INTERRES
    95   49   50 1    
    96   49  115 1    
    97   50   51 1    
    98   50   52 1    
    99   50  116 1    
   100   51  117 1    
   101   51  118 1    
   102   51  119 1    
   103   52   53 2    
   104   52   54 am   BACKBONE|DICT|INTERRES
   105   54   55 1    
   106   54  120 1    
   107   55   56 1    
   108   55   57 1    
   109   55  121 1    
   110   56  122 1    
   111   56  123 1    
   112   56  124 1    
   113   57   58 2    
   114   57   59 am   BACKBONE|DICT|INTERRES
   115   59   60 1    
   116   59  125 1    
   117   60   61 1    
   118   60   62 1    
   119   60  126 1    
   120   61  127 1    
   121   61  128 1    
   122   61  129 1    
   123   62   63 2    
   124   62   64 am   BACKBONE|DICT|INTERRES
   125   64   65 1    
   126   64  130 1    
   127   65   66 1    
   128   65   69 1    
   129   65  131 1    
   130   66   67 am   BACKBONE|DICT|INTERRES
   131   66   68 2    
   132   67  132 1    
   133   67  133 1    
   134   69   70 1    
   135   69  134 1    
   136   69  135 1    
   137   70   71 1    
   138   71  136 1    
   139   71  137 1    
@<TRIPOS>SUBSTRUCTURE
     1 UNK         1 GROUP             0       ****    0 ROOT    
