@<TRIPOS>MOLECULE
3R136
137   139    1
SMALL
USER_CHARGES


@<TRIPOS>ATOM
      1 CA         27.2329   20.6635    1.0829 C.3       0 UNK        -0.1979 
      2 C          27.2979   22.1780    0.9668 C.2       0 UNK         0.4864 
      3 O          27.2214   22.7066   -0.1448 O.2       0 UNK        -0.5359 
      4 N          27.4209   22.8798    2.1055 N.am      1 UNK        -0.4318 
      5 CA         27.5603   24.3403    2.2144 C.3       1 UNK         0.0824 
      6 C6         27.5918   24.8273    3.6841 C.3       12 UNK        -0.0944 
      7 S7         28.9963   24.1654    4.6419 S.3       12 UNK        -0.2672 
      8 C8         29.7864   25.6963    5.2508 C.3       12 UNK         0.0333 
      9 C9         30.9457   26.1573    4.3735 C.ar      12 UNK        -0.0807 
     10 C10        32.1986   26.3954    4.9465 C.ar      12 UNK        -0.0894 
     11 C11        33.2712   26.8235    4.1592 C.ar      12 UNK        -0.0804 
     12 C12        33.0939   26.9887    2.7827 C.ar      12 UNK        -0.0824 
     13 C13        31.8483   26.7533    2.1958 C.ar      12 UNK        -0.0762 
     14 C14        30.7744   26.3629    3.0006 C.ar      12 UNK        -0.0782 
     15 C15        31.6809   26.8723    0.6883 C.3       12 UNK         0.0230 
     16 S16        31.4109   28.5846    0.1411 S.3       12 UNK        -0.2608 
     17 C17        29.6329   28.8147    0.4710 C.3       12 UNK        -0.0989 
     18 CA         28.7548   28.6544   -0.7998 C.3       5 UNK         0.0716 
     19 N          28.5743   27.2431   -1.1721 N.am      5 UNK        -0.4135 
     20 C          29.1733   26.6519   -2.2143 C.2       4 UNK         0.5031 
     21 O          29.9062   27.2381   -3.0124 O.2       4 UNK        -0.5229 
     22 CA         28.9386   25.1427   -2.4034 C.3       4 UNK         0.0329 
     23 CB         29.8723   24.3177   -1.5035 C.3       4 UNK        -0.2001 
     24 N          27.5573   24.7114   -2.1875 N.am      4 UNK        -0.4303 
     25 C          26.5372   24.9956   -3.0099 C.2       3 UNK         0.5044 
     26 O          26.6274   25.7382   -3.9879 O.2       3 UNK        -0.5152 
     27 CA         25.1957   24.3125   -2.7083 C.3       3 UNK         0.0319 
     28 CB         25.2090   22.8567   -3.2039 C.3       3 UNK        -0.2001 
     29 N          24.9012   24.3325   -1.2773 N.am      3 UNK        -0.4354 
     30 C          24.1651   25.2739   -0.6720 C.2       2 UNK         0.4964 
     31 O          23.5957   26.1904   -1.2643 O.2       2 UNK        -0.5047 
     32 CA         24.0470   25.1910    0.8607 C.3       2 UNK         0.0288 
     33 CB         22.8109   24.3673    1.2563 C.3       2 UNK        -0.2113 
     34 N          25.2273   24.6340    1.5252 N.am      2 UNK        -0.4145 
     35 C          26.4751   25.1215    1.4525 C.2       1 UNK         0.5006 
     36 O          26.7987   26.1137    0.7965 O.2       1 UNK        -0.5103 
     37 C          27.4065   29.3739   -0.6050 C.2       5 UNK         0.5055 
     38 O          27.3559   30.5875   -0.8096 O.2       5 UNK        -0.5220 
     39 N          26.3591   28.6457   -0.1845 N.am      6 UNK        -0.4450 
     40 CA         25.0490   29.1483    0.2588 C.3       6 UNK         0.0367 
     41 CB         24.3031   29.8856   -0.8736 C.3       6 UNK        -0.1929 
     42 C          25.1301   29.9648    1.5672 C.2       6 UNK         0.5070 
     43 O          24.2471   30.7789    1.8404 O.2       6 UNK        -0.5237 
     44 N          26.1844   29.7194    2.3537 N.am      7 UNK        -0.4739 
     45 CA         26.5799   30.3872    3.5908 C.3       7 UNK         0.0276 
     46 CB         26.8823   31.8803    3.3274 C.3       7 UNK        -0.1927 
     47 C          27.8290   29.6599    4.1191 C.2       7 UNK         0.5013 
     48 O          28.2701   28.6835    3.5063 O.2       7 UNK        -0.5193 
     49 N          28.3909   30.1569    5.2262 N.am      8 UNK        -0.4253 
     50 CA         29.7333   29.8030    5.6936 C.3       8 UNK         0.0242 
     51 CB         29.7715   29.9076    7.2277 C.3       8 UNK        -0.2000 
     52 C          30.7762   30.7381    5.0551 C.2       8 UNK         0.4948 
     53 O          30.4186   31.8054    4.5480 O.2       8 UNK        -0.5275 
     54 N          32.0501   30.3412    5.1204 N.am      9 UNK        -0.4246 
     55 CA         33.1953   31.1002    4.6221 C.3       9 UNK         0.0261 
     56 CB         33.4240   30.7735    3.1330 C.3       9 UNK        -0.1959 
     57 C          34.4268   30.7739    5.4784 C.2       9 UNK         0.5033 
     58 O          34.3544   29.9112    6.3587 O.2       9 UNK        -0.5390 
     59 N          35.5423   31.4590    5.2035 N.am      10 UNK        -0.4215 
     60 CA         36.8317   31.2511    5.8622 C.3       10 UNK         0.0240 
     61 CB         37.6308   32.5677    5.8226 C.3       10 UNK        -0.1982 
     62 C          37.5962   30.0864    5.2069 C.2       10 UNK         0.4970 
     63 O          38.4491   30.3196    4.3480 O.2       10 UNK        -0.4916 
     64 N          37.2638   28.8544    5.6099 N.am      11 UNK        -0.4279 
     65 CA         37.9861   27.6270    5.2354 C.3       11 UNK         0.1003 
     66 C          39.4073   27.5858    5.8646 C.2       11 UNK         0.5709 
     67 N          40.3766   27.0057    5.1700 N.am      11 UNK        -0.7358 
     68 O          39.6283   28.0364    6.9879 O.2       11 UNK        -0.4999 
     69 C69        37.1794   26.3533    5.6153 C.3       12 UNK        -0.0954 
     70 S70        35.8853   25.9176    4.4053 S.3       12 UNK        -0.2268 
     71 C71        34.6092   27.1431    4.8026 C.3       12 UNK         0.0203 
     72 H72        28.0521   20.2116    0.5245 H         1 UNK         0.0888 
     73 H73        27.3019   20.3298    2.1181 H         1 UNK         0.0888 
     74 H74        26.2945   20.2966    0.6683 H         1 UNK         0.0888 
     75 H75        27.4884   22.3807    2.9817 H         1 UNK         0.3017 
     76 H76        28.5109   24.5876    1.7419 H         1 UNK         0.0873 
     77 H77        27.6219   25.9185    3.7172 H         1 UNK         0.0745 
     78 H78        26.6733   24.5425    4.2011 H         1 UNK         0.0745 
     79 H79        30.1397   25.4999    6.2642 H         1 UNK         0.0705 
     80 H80        29.0550   26.4997    5.3442 H         1 UNK         0.0705 
     81 H81        32.3387   26.2580    6.0101 H         1 UNK         0.1334 
     82 H82        33.9269   27.3021    2.1681 H         1 UNK         0.1417 
     83 H83        29.8052   26.2052    2.5560 H         1 UNK         0.1562 
     84 H84        30.8549   26.2494    0.3505 H         1 UNK         0.0748 
     85 H85        32.5724   26.4848    0.1930 H         1 UNK         0.0748 
     86 H86        29.5302   29.8144    0.8994 H         1 UNK         0.0940 
     87 H87        29.3066   28.1260    1.2491 H         1 UNK         0.0940 
     88 H88        29.2431   29.1899   -1.6170 H         1 UNK         0.0703 
     89 H89        27.9778   26.6842   -0.5700 H         1 UNK         0.3081 
     90 H90        29.1944   24.9091   -3.4393 H         1 UNK         0.0719 
     91 H91        29.8232   23.2579   -1.7545 H         1 UNK         0.0809 
     92 H92        30.9111   24.6294   -1.6215 H         1 UNK         0.0809 
     93 H93        29.6116   24.4171   -0.4502 H         1 UNK         0.0809 
     94 H94        27.4013   24.0535   -1.4266 H         1 UNK         0.2990 
     95 H95        24.4160   24.8448   -3.2577 H         1 UNK         0.0690 
     96 H96        25.4264   22.8102   -4.2719 H         1 UNK         0.0788 
     97 H97        24.2416   22.3786   -3.0494 H         1 UNK         0.0788 
     98 H98        25.9631   22.2585   -2.6903 H         1 UNK         0.0788 
     99 H99        25.3768   23.6417   -0.7085 H         1 UNK         0.2993 
    100 H100       23.9096   26.2044    1.2387 H         1 UNK         0.0949 
    101 H101       22.8992   23.3276    0.9380 H         1 UNK         0.0767 
    102 H102       22.6548   24.3772    2.3353 H         1 UNK         0.0767 
    103 H103       21.9081   24.7731    0.7973 H         1 UNK         0.0767 
    104 H104       25.0797   23.8022    2.0783 H         1 UNK         0.3013 
    105 H105       26.5134   27.6602    0.0214 H         1 UNK         0.3121 
    106 H106       24.4594   28.2670    0.5028 H         1 UNK         0.0774 
    107 H107       24.7706   30.8391   -1.1193 H         1 UNK         0.0815 
    108 H108       23.2726   30.0971   -0.5863 H         1 UNK         0.0815 
    109 H109       24.2668   29.2817   -1.7804 H         1 UNK         0.0815 
    110 H110       26.8382   28.9922    2.0861 H         1 UNK         0.2987 
    111 H111       25.7769   30.2860    4.3232 H         1 UNK         0.0949 
    112 H112       27.6904   32.0012    2.6043 H         1 UNK         0.0806 
    113 H113       26.0115   32.4109    2.9437 H         1 UNK         0.0806 
    114 H114       27.1824   32.3976    4.2390 H         1 UNK         0.0806 
    115 H115       27.9877   30.9861    5.6374 H         1 UNK         0.3010 
    116 H116       29.9708   28.7774    5.4048 H         1 UNK         0.0829 
    117 H117       30.7474   29.6166    7.6185 H         1 UNK         0.0813 
    118 H118       29.5740   30.9247    7.5689 H         1 UNK         0.0813 
    119 H119       29.0327   29.2504    7.6868 H         1 UNK         0.0813 
    120 H120       32.2990   29.5006    5.6270 H         1 UNK         0.3038 
    121 H121       32.9964   32.1685    4.7322 H         1 UNK         0.0769 
    122 H122       34.2226   31.3812    2.7071 H         1 UNK         0.0811 
    123 H123       32.5279   30.9653    2.5420 H         1 UNK         0.0811 
    124 H124       33.6959   29.7291    2.9871 H         1 UNK         0.0811 
    125 H125       35.5288   32.1284    4.4471 H         1 UNK         0.3204 
    126 H126       36.6681   30.9995    6.9127 H         1 UNK         0.0748 
    127 H127       37.1096   33.3625    6.3567 H         1 UNK         0.0771 
    128 H128       38.6056   32.4456    6.2969 H         1 UNK         0.0771 
    129 H129       37.8054   32.9098    4.8016 H         1 UNK         0.0771 
    130 H130       36.5398   28.7565    6.3076 H         1 UNK         0.2980 
    131 H131       38.1149   27.6419    4.1510 H         1 UNK         0.0545 
    132 H132       41.3017   26.9556    5.5674 H         1 UNK         0.3459 
    133 H133       40.2033   26.6201    4.2546 H         1 UNK         0.3459 
    134 H134       37.8354   25.4818    5.6646 H         1 UNK         0.0616 
    135 H135       36.7407   26.4452    6.6105 H         1 UNK         0.0616 
    136 H136       34.5045   27.2236    5.8856 H         1 UNK         0.0634 
    137 H137       34.9439   28.1135    4.4403 H         1 UNK         0.0634 
@<TRIPOS>BOND
     1    1    2 1    
     2    1   72 1    
     3    1   73 1    
     4    1   74 1    
     5    2    3 2    
     6    2    4 am   BACKBONE|DICT|INTERRES
     7    4    5 1    
     8    4   75 1    
     9    5    6 1    
    10    5   35 1    
    11    5   76 1    
    12    6    7 1    
    13    6   77 1    
    14    6   78 1    
    15    7    8 1    
    16    8    9 1    
    17    8   79 1    
    18    8   80 1    
    19    9   10 ar   
    20    9   14 ar   
    21   10   11 ar   
    22   10   81 1    
    23   11   12 ar   
    24   11   71 1    
    25   12   13 ar   
    26   12   82 1    
    27   13   14 ar   
    28   13   15 1    
    29   14   83 1    
    30   15   16 1    
    31   15   84 1    
    32   15   85 1    
    33   16   17 1    
    34   17   18 1    
    35   17   86 1    
    36   17   87 1    
    37   18   19 1    
    38   18   37 1    
    39   18   88 1    
    40   19   20 am   BACKBONE|DICT|INTERRES
    41   19   89 1    
    42   20   21 2    
    43   20   22 1    
    44   22   23 1    
    45   22   24 1    
    46   22   90 1    
    47   23   91 1    
    48   23   92 1    
    49   23   93 1    
    50   24   25 am   BACKBONE|DICT|INTERRES
    51   24   94 1    
    52   25   26 2    
    53   25   27 1    
    54   27   28 1    
    55   27   29 1    
    56   27   95 1    
    57   28   96 1    
    58   28   97 1    
    59   28   98 1    
    60   29   30 am   BACKBONE|DICT|INTERRES
    61   29   99 1    
    62   30   31 2    
    63   30   32 1    
    64   32   33 1    
    65   32   34 1    
    66   32  100 1    
    67   33  101 1    
    68   33  102 1    
    69   33  103 1    
    70   34   35 am   BACKBONE|DICT|INTERRES
    71   34  104 1    
    72   35   36 2    
    73   37   38 2    
    74   37   39 am   BACKBONE|DICT|INTERRES
    75   39   40 1    
    76   39  105 1    
    77   40   41 1    
    78   40   42 1    
    79   40  106 1    
    80   41  107 1    
    81   41  108 1    
    82   41  109 1    
    83   42   43 2    
    84   42   44 am   BACKBONE|DICT|INTERRES
    85   44   45 1    
    86   44  110 1    
    87   45   46 1    
    88   45   47 1    
    89   45  111 1    
    90   46  112 1    
    91   46  113 1    
    92   46  114 1    
    93   47   48 2    
    94   47   49 am   BACKBONE|DICT|INTERRES
    95   49   50 1    
    96   49  115 1    
    97   50   51 1    
    98   50   52 1    
    99   50  116 1    
   100   51  117 1    
   101   51  118 1    
   102   51  119 1    
   103   52   53 2    
   104   52   54 am   BACKBONE|DICT|INTERRES
   105   54   55 1    
   106   54  120 1    
   107   55   56 1    
   108   55   57 1    
   109   55  121 1    
   110   56  122 1    
   111   56  123 1    
   112   56  124 1    
   113   57   58 2    
   114   57   59 am   BACKBONE|DICT|INTERRES
   115   59   60 1    
   116   59  125 1    
   117   60   61 1    
   118   60   62 1    
   119   60  126 1    
   120   61  127 1    
   121   61  128 1    
   122   61  129 1    
   123   62   63 2    
   124   62   64 am   BACKBONE|DICT|INTERRES
   125   64   65 1    
   126   64  130 1    
   127   65   66 1    
   128   65   69 1    
   129   65  131 1    
   130   66   67 am   BACKBONE|DICT|INTERRES
   131   66   68 2    
   132   67  132 1    
   133   67  133 1    
   134   69   70 1    
   135   69  134 1    
   136   69  135 1    
   137   70   71 1    
   138   71  136 1    
   139   71  137 1    
@<TRIPOS>SUBSTRUCTURE
     1 UNK         1 GROUP             0       ****    0 ROOT    
