@<TRIPOS>MOLECULE
3R136
137   139    1
SMALL
USER_CHARGES


@<TRIPOS>ATOM
      1 CA         26.9083   26.0369    6.2033 C.3       0 UNK        -0.1979 
      2 C          26.9454   25.2331    4.9123 C.2       0 UNK         0.4864 
      3 O          26.2089   24.2540    4.7780 O.2       0 UNK        -0.5359 
      4 N          27.7812   25.6421    3.9499 N.am      1 UNK        -0.4318 
      5 CA         27.9972   24.9894    2.6513 C.3       1 UNK         0.0824 
      6 C6         29.3836   25.3541    2.0582 C.3       12 UNK        -0.0944 
      7 S7         30.7562   24.8913    3.1686 S.3       12 UNK        -0.2672 
      8 C8         32.0872   24.5089    1.9881 C.3       12 UNK         0.0333 
      9 C9         32.5481   25.7449    1.2282 C.ar      12 UNK        -0.0807 
     10 C10        33.4321   26.6484    1.8245 C.ar      12 UNK        -0.0894 
     11 C11        33.8713   27.7782    1.1302 C.ar      12 UNK        -0.0804 
     12 C12        33.4284   27.9961   -0.1780 C.ar      12 UNK        -0.0824 
     13 C13        32.5317   27.1083   -0.7819 C.ar      12 UNK        -0.0762 
     14 C14        32.1014   25.9806   -0.0751 C.ar      12 UNK        -0.0782 
     15 C15        32.0304   27.3525   -2.1999 C.3       12 UNK         0.0230 
     16 S16        31.2905   29.0030   -2.4471 S.3       12 UNK        -0.2608 
     17 C17        30.0311   29.1310   -1.1301 C.3       12 UNK        -0.0989 
     18 CA         28.5961   28.8531   -1.6461 C.3       5 UNK         0.0716 
     19 N          28.4083   27.4315   -1.9567 N.am      5 UNK        -0.4135 
     20 C          27.3801   26.9046   -2.6342 C.2       4 UNK         0.5031 
     21 O          26.3939   27.5478   -2.9950 O.2       4 UNK        -0.5229 
     22 CA         27.4758   25.4162   -3.0042 C.3       4 UNK         0.0329 
     23 CB         28.8979   24.8227   -2.9224 C.3       4 UNK        -0.2001 
     24 N          26.5823   24.6440   -2.1481 N.am      4 UNK        -0.4303 
     25 C          25.7990   23.6385   -2.5635 C.2       3 UNK         0.5044 
     26 O          25.7295   23.2691   -3.7370 O.2       3 UNK        -0.5152 
     27 CA         24.9644   22.8874   -1.5054 C.3       3 UNK         0.0319 
     28 CB         25.5311   21.4757   -1.2786 C.3       3 UNK        -0.2001 
     29 N          24.8885   23.5749   -0.2153 N.am      3 UNK        -0.4354 
     30 C          24.1794   24.6863    0.0201 C.2       2 UNK         0.4964 
     31 O          23.4341   25.2103   -0.8077 O.2       2 UNK        -0.5047 
     32 CA         24.3437   25.3407    1.4025 C.3       2 UNK         0.0288 
     33 CB         23.1658   24.9695    2.3174 C.3       2 UNK        -0.2113 
     34 N          25.6010   25.0272    2.0952 N.am      2 UNK        -0.4145 
     35 C          26.8435   25.2953    1.6679 C.2       1 UNK         0.5006 
     36 O          27.0845   25.7858    0.5610 O.2       1 UNK        -0.5103 
     37 C          27.5601   29.4371   -0.6613 C.2       5 UNK         0.5055 
     38 O          27.3577   30.6524   -0.6818 O.2       5 UNK        -0.5220 
     39 N          26.9571   28.5973    0.1961 N.am      6 UNK        -0.4450 
     40 CA         26.0573   28.9709    1.2996 C.3       6 UNK         0.0367 
     41 CB         24.7268   29.5436    0.7677 C.3       6 UNK        -0.1929 
     42 C          26.7349   29.8708    2.3538 C.2       6 UNK         0.5070 
     43 O          26.0898   30.7436    2.9367 O.2       6 UNK        -0.5237 
     44 N          28.0287   29.6228    2.5797 N.am      7 UNK        -0.4739 
     45 CA         28.8750   30.2731    3.5763 C.3       7 UNK         0.0276 
     46 CB         30.0965   30.8688    2.8533 C.3       7 UNK        -0.1927 
     47 C          29.3260   29.2303    4.6076 C.2       7 UNK         0.5013 
     48 O          29.1726   28.0286    4.3718 O.2       7 UNK        -0.5193 
     49 N          29.8989   29.7008    5.7229 N.am      8 UNK        -0.4253 
     50 CA         30.5856   28.8574    6.7057 C.3       8 UNK         0.0242 
     51 CB         30.9292   29.6986    7.9457 C.3       8 UNK        -0.2000 
     52 C          31.8611   28.2509    6.0973 C.2       8 UNK         0.4948 
     53 O          32.5250   28.9246    5.3089 O.2       8 UNK        -0.5275 
     54 N          32.1930   27.0149    6.4946 N.am      9 UNK        -0.4246 
     55 CA         33.2360   26.1719    5.8919 C.3       9 UNK         0.0261 
     56 CB         33.2835   24.8233    6.6279 C.3       9 UNK        -0.1959 
     57 C          34.6475   26.7845    5.8012 C.2       9 UNK         0.5033 
     58 O          35.4052   26.4095    4.9055 O.2       9 UNK        -0.5390 
     59 N          34.9798   27.7032    6.7158 N.am      10 UNK        -0.4215 
     60 CA         36.2474   28.4350    6.7232 C.3       10 UNK         0.0240 
     61 CB         36.5353   28.9135    8.1564 C.3       10 UNK        -0.1982 
     62 C          36.2786   29.6289    5.7491 C.2       10 UNK         0.4970 
     63 O          37.3752   30.0627    5.3921 O.2       10 UNK        -0.4916 
     64 N          35.1054   30.1567    5.3656 N.am      11 UNK        -0.4279 
     65 CA         34.9167   31.4151    4.6218 C.3       11 UNK         0.1003 
     66 C          35.6048   32.6428    5.3017 C.2       11 UNK         0.5709 
     67 N          36.0310   33.6544    4.5559 N.am      11 UNK        -0.7358 
     68 O          35.6995   32.7169    6.5261 O.2       11 UNK        -0.4999 
     69 C69        35.1966   31.2533    3.0978 C.3       12 UNK        -0.0954 
     70 S70        33.8982   30.2651    2.2878 S.3       12 UNK        -0.2268 
     71 C71        34.8081   28.7728    1.7982 C.3       12 UNK         0.0203 
     72 H72        27.1196   25.3894    7.0537 H         1 UNK         0.0888 
     73 H73        27.6405   26.8433    6.2033 H         1 UNK         0.0888 
     74 H74        25.9206   26.4749    6.3440 H         1 UNK         0.0888 
     75 H75        28.3524   26.4730    4.1128 H         1 UNK         0.3017 
     76 H76        27.9852   23.9088    2.8097 H         1 UNK         0.0873 
     77 H77        29.4537   26.4250    1.8580 H         1 UNK         0.0745 
     78 H78        29.5254   24.8485    1.1015 H         1 UNK         0.0745 
     79 H79        31.7527   23.7308    1.3003 H         1 UNK         0.0705 
     80 H80        32.9300   24.0864    2.5373 H         1 UNK         0.0705 
     81 H81        33.7771   26.4749    2.8324 H         1 UNK         0.1334 
     82 H82        33.7630   28.8719   -0.7175 H         1 UNK         0.1417 
     83 H83        31.4208   25.2802   -0.5385 H         1 UNK         0.1562 
     84 H84        31.3017   26.5968   -2.4892 H         1 UNK         0.0748 
     85 H85        32.8685   27.2418   -2.8892 H         1 UNK         0.0748 
     86 H86        30.1107   30.1491   -0.7419 H         1 UNK         0.0940 
     87 H87        30.2771   28.4821   -0.2882 H         1 UNK         0.0940 
     88 H88        28.4597   29.4026   -2.5804 H         1 UNK         0.0703 
     89 H89        29.1613   26.8179   -1.6898 H         1 UNK         0.3081 
     90 H90        27.1458   25.3483   -4.0431 H         1 UNK         0.0719 
     91 H91        28.9079   23.7943   -3.2844 H         1 UNK         0.0809 
     92 H92        29.5929   25.3815   -3.5499 H         1 UNK         0.0809 
     93 H93        29.2839   24.8101   -1.9027 H         1 UNK         0.0809 
     94 H94        26.5609   24.9205   -1.1714 H         1 UNK         0.2990 
     95 H95        23.9513   22.7892   -1.9014 H         1 UNK         0.0690 
     96 H96        26.5463   21.5071   -0.8807 H         1 UNK         0.0788 
     97 H97        25.5652   20.9130   -2.2127 H         1 UNK         0.0788 
     98 H98        24.9137   20.9062   -0.5835 H         1 UNK         0.0788 
     99 H99        25.4604   23.2071    0.5308 H         1 UNK         0.2993 
    100 H100       24.3158   26.4183    1.2380 H         1 UNK         0.0949 
    101 H101       23.1543   23.9029    2.5459 H         1 UNK         0.0767 
    102 H102       23.2096   25.5142    3.2609 H         1 UNK         0.0767 
    103 H103       22.2116   25.2141    1.8481 H         1 UNK         0.0767 
    104 H104       25.5220   24.6345    3.0307 H         1 UNK         0.3013 
    105 H105       27.1639   27.6031    0.1267 H         1 UNK         0.3121 
    106 H106       25.8234   28.0494    1.8298 H         1 UNK         0.0774 
    107 H107       24.8647   30.5140    0.2904 H         1 UNK         0.0815 
    108 H108       24.0089   29.6800    1.5772 H         1 UNK         0.0815 
    109 H109       24.2702   28.8730    0.0396 H         1 UNK         0.0815 
    110 H110       28.4503   28.8339    2.1119 H         1 UNK         0.2987 
    111 H111       28.3306   31.0662    4.0936 H         1 UNK         0.0949 
    112 H112       30.6923   30.0959    2.3646 H         1 UNK         0.0806 
    113 H113       29.7943   31.5880    2.0918 H         1 UNK         0.0806 
    114 H114       30.7553   31.3908    3.5484 H         1 UNK         0.0806 
    115 H115       30.0179   30.6978    5.8250 H         1 UNK         0.3010 
    116 H116       29.9100   28.0507    6.9984 H         1 UNK         0.0829 
    117 H117       31.4139   29.0897    8.7100 H         1 UNK         0.0813 
    118 H118       31.6079   30.5177    7.7030 H         1 UNK         0.0813 
    119 H119       30.0333   30.1268    8.3957 H         1 UNK         0.0813 
    120 H120       31.6013   26.5601    7.1751 H         1 UNK         0.3038 
    121 H121       32.9165   25.9784    4.8682 H         1 UNK         0.0769 
    122 H122       33.5378   24.9468    7.6813 H         1 UNK         0.0811 
    123 H123       34.0317   24.1630    6.1867 H         1 UNK         0.0811 
    124 H124       32.3261   24.3049    6.5687 H         1 UNK         0.0811 
    125 H125       34.2970   27.9511    7.4169 H         1 UNK         0.3204 
    126 H126       37.0487   27.7533    6.4294 H         1 UNK         0.0748 
    127 H127       36.5845   28.0763    8.8530 H         1 UNK         0.0771 
    128 H128       37.4931   29.4332    8.2092 H         1 UNK         0.0771 
    129 H129       35.7707   29.6052    8.5128 H         1 UNK         0.0771 
    130 H130       34.2421   29.6828    5.6147 H         1 UNK         0.2980 
    131 H131       33.8550   31.6405    4.7298 H         1 UNK         0.0545 
    132 H132       36.4514   34.4511    5.0080 H         1 UNK         0.3459 
    133 H133       35.9476   33.6334    3.5522 H         1 UNK         0.3459 
    134 H134       35.1914   32.2139    2.5828 H         1 UNK         0.0616 
    135 H135       36.1812   30.8172    2.9225 H         1 UNK         0.0616 
    136 H136       35.6129   29.0426    1.1129 H         1 UNK         0.0634 
    137 H137       35.2765   28.3325    2.6803 H         1 UNK         0.0634 
@<TRIPOS>BOND
     1    1    2 1    
     2    1   72 1    
     3    1   73 1    
     4    1   74 1    
     5    2    3 2    
     6    2    4 am   BACKBONE|DICT|INTERRES
     7    4    5 1    
     8    4   75 1    
     9    5    6 1    
    10    5   35 1    
    11    5   76 1    
    12    6    7 1    
    13    6   77 1    
    14    6   78 1    
    15    7    8 1    
    16    8    9 1    
    17    8   79 1    
    18    8   80 1    
    19    9   10 ar   
    20    9   14 ar   
    21   10   11 ar   
    22   10   81 1    
    23   11   12 ar   
    24   11   71 1    
    25   12   13 ar   
    26   12   82 1    
    27   13   14 ar   
    28   13   15 1    
    29   14   83 1    
    30   15   16 1    
    31   15   84 1    
    32   15   85 1    
    33   16   17 1    
    34   17   18 1    
    35   17   86 1    
    36   17   87 1    
    37   18   19 1    
    38   18   37 1    
    39   18   88 1    
    40   19   20 am   BACKBONE|DICT|INTERRES
    41   19   89 1    
    42   20   21 2    
    43   20   22 1    
    44   22   23 1    
    45   22   24 1    
    46   22   90 1    
    47   23   91 1    
    48   23   92 1    
    49   23   93 1    
    50   24   25 am   BACKBONE|DICT|INTERRES
    51   24   94 1    
    52   25   26 2    
    53   25   27 1    
    54   27   28 1    
    55   27   29 1    
    56   27   95 1    
    57   28   96 1    
    58   28   97 1    
    59   28   98 1    
    60   29   30 am   BACKBONE|DICT|INTERRES
    61   29   99 1    
    62   30   31 2    
    63   30   32 1    
    64   32   33 1    
    65   32   34 1    
    66   32  100 1    
    67   33  101 1    
    68   33  102 1    
    69   33  103 1    
    70   34   35 am   BACKBONE|DICT|INTERRES
    71   34  104 1    
    72   35   36 2    
    73   37   38 2    
    74   37   39 am   BACKBONE|DICT|INTERRES
    75   39   40 1    
    76   39  105 1    
    77   40   41 1    
    78   40   42 1    
    79   40  106 1    
    80   41  107 1    
    81   41  108 1    
    82   41  109 1    
    83   42   43 2    
    84   42   44 am   BACKBONE|DICT|INTERRES
    85   44   45 1    
    86   44  110 1    
    87   45   46 1    
    88   45   47 1    
    89   45  111 1    
    90   46  112 1    
    91   46  113 1    
    92   46  114 1    
    93   47   48 2    
    94   47   49 am   BACKBONE|DICT|INTERRES
    95   49   50 1    
    96   49  115 1    
    97   50   51 1    
    98   50   52 1    
    99   50  116 1    
   100   51  117 1    
   101   51  118 1    
   102   51  119 1    
   103   52   53 2    
   104   52   54 am   BACKBONE|DICT|INTERRES
   105   54   55 1    
   106   54  120 1    
   107   55   56 1    
   108   55   57 1    
   109   55  121 1    
   110   56  122 1    
   111   56  123 1    
   112   56  124 1    
   113   57   58 2    
   114   57   59 am   BACKBONE|DICT|INTERRES
   115   59   60 1    
   116   59  125 1    
   117   60   61 1    
   118   60   62 1    
   119   60  126 1    
   120   61  127 1    
   121   61  128 1    
   122   61  129 1    
   123   62   63 2    
   124   62   64 am   BACKBONE|DICT|INTERRES
   125   64   65 1    
   126   64  130 1    
   127   65   66 1    
   128   65   69 1    
   129   65  131 1    
   130   66   67 am   BACKBONE|DICT|INTERRES
   131   66   68 2    
   132   67  132 1    
   133   67  133 1    
   134   69   70 1    
   135   69  134 1    
   136   69  135 1    
   137   70   71 1    
   138   71  136 1    
   139   71  137 1    
@<TRIPOS>SUBSTRUCTURE
     1 UNK         1 GROUP             0       ****    0 ROOT    
