@<TRIPOS>MOLECULE
3R136
137   139    1
SMALL
USER_CHARGES


@<TRIPOS>ATOM
      1 CA         32.9143   26.3253   -1.0421 C.3       0 UNK        -0.1979 
      2 C          32.0392   25.5137   -0.0983 C.2       0 UNK         0.4864 
      3 O          32.0368   25.7839    1.1016 O.2       0 UNK        -0.5359 
      4 N          31.3058   24.5315   -0.6387 N.am      1 UNK        -0.4318 
      5 CA         30.3639   23.6788    0.0911 C.3       1 UNK         0.0824 
      6 C6         30.5522   22.1734   -0.2436 C.3       12 UNK        -0.0944 
      7 S7         32.1174   21.5085    0.4115 S.3       12 UNK        -0.2672 
      8 C8         31.5375   20.5861    1.8741 C.3       12 UNK         0.0333 
      9 C9         31.2620   21.5086    3.0536 C.ar      12 UNK        -0.0807 
     10 C10        32.3000   21.8375    3.9302 C.ar      12 UNK        -0.0894 
     11 C11        32.0697   22.6795    5.0214 C.ar      12 UNK        -0.0804 
     12 C12        30.7879   23.1936    5.2327 C.ar      12 UNK        -0.0824 
     13 C13        29.7463   22.8944    4.3502 C.ar      12 UNK        -0.0762 
     14 C14        29.9827   22.0335    3.2730 C.ar      12 UNK        -0.0782 
     15 C15        28.3757   23.5263    4.5563 C.3       12 UNK         0.0230 
     16 S16        28.0732   24.9137    3.4107 S.3       12 UNK        -0.2608 
     17 C17        29.5540   25.9591    3.6665 C.3       12 UNK        -0.0989 
     18 CA         29.4330   27.4412    3.2194 C.3       5 UNK         0.0716 
     19 N          28.9855   27.6011    1.8317 N.am      5 UNK        -0.4135 
     20 C          28.9309   28.7642    1.1629 C.2       4 UNK         0.5031 
     21 O          29.2466   29.8523    1.6474 O.2       4 UNK        -0.5229 
     22 CA         28.4286   28.7380   -0.2868 C.3       4 UNK         0.0329 
     23 CB         29.5644   28.3656   -1.2525 C.3       4 UNK        -0.2001 
     24 N          27.3071   27.8138   -0.4588 N.am      4 UNK        -0.4303 
     25 C          26.0745   28.1706   -0.8472 C.2       3 UNK         0.5044 
     26 O          25.7626   29.3293   -1.1269 O.2       3 UNK        -0.5152 
     27 CA         24.9805   27.0826   -0.9099 C.3       3 UNK         0.0319 
     28 CB         24.1396   27.1773   -2.2014 C.3       3 UNK        -0.2001 
     29 N          25.4513   25.7101   -0.6810 N.am      3 UNK        -0.4354 
     30 C          26.2438   24.9660   -1.4659 C.2       2 UNK         0.4964 
     31 O          26.6943   25.3236   -2.5557 O.2       2 UNK        -0.5047 
     32 CA         26.6141   23.5809   -0.9071 C.3       2 UNK         0.0288 
     33 CB         26.0353   22.4655   -1.7938 C.3       2 UNK        -0.2113 
     34 N          28.0567   23.3675   -0.7444 N.am      2 UNK        -0.4145 
     35 C          28.9325   24.1990   -0.1557 C.2       1 UNK         0.5006 
     36 O          28.6416   25.3346    0.2234 O.2       1 UNK        -0.5103 
     37 C          28.5887   28.2891    4.1920 C.2       5 UNK         0.5055 
     38 O          27.3841   28.0624    4.3221 O.2       5 UNK        -0.5220 
     39 N          29.2284   29.3001    4.7956 N.am      6 UNK        -0.4450 
     40 CA         28.6952   30.3466    5.6797 C.3       6 UNK         0.0367 
     41 CB         28.0191   29.7519    6.9303 C.3       6 UNK        -0.1929 
     42 C          27.7769   31.3644    4.9757 C.2       6 UNK         0.5070 
     43 O          27.7768   32.5337    5.3606 O.2       6 UNK        -0.5237 
     44 N          27.0262   30.9216    3.9600 N.am      7 UNK        -0.4739 
     45 CA         26.1394   31.7340    3.1274 C.3       7 UNK         0.0276 
     46 CB         25.3010   30.8048    2.2350 C.3       7 UNK        -0.1927 
     47 C          26.8851   32.7717    2.2715 C.2       7 UNK         0.5013 
     48 O          26.3734   33.8788    2.0978 O.2       7 UNK        -0.5193 
     49 N          28.0647   32.3998    1.7575 N.am      8 UNK        -0.4253 
     50 CA         28.9229   33.2489    0.9322 C.3       8 UNK         0.0242 
     51 CB         28.9936   32.6813   -0.4957 C.3       8 UNK        -0.2000 
     52 C          30.3320   33.3797    1.5244 C.2       8 UNK         0.4948 
     53 O          30.8865   34.4794    1.4856 O.2       8 UNK        -0.5275 
     54 N          30.9004   32.2840    2.0471 N.am      9 UNK        -0.4246 
     55 CA         32.2686   32.2384    2.5643 C.3       9 UNK         0.0261 
     56 CB         33.2547   32.0677    1.3910 C.3       9 UNK        -0.1959 
     57 C          32.4251   31.0927    3.5687 C.2       9 UNK         0.5033 
     58 O          31.5739   30.2040    3.6328 O.2       9 UNK        -0.5390 
     59 N          33.5311   31.1111    4.3207 N.am      10 UNK        -0.4215 
     60 CA         33.9599   29.9885    5.1547 C.3       10 UNK         0.0240 
     61 CB         35.0057   30.4750    6.1712 C.3       10 UNK        -0.1982 
     62 C          34.5377   28.8691    4.2728 C.2       10 UNK         0.4970 
     63 O          35.2892   29.1604    3.3385 O.2       10 UNK        -0.4916 
     64 N          34.1857   27.6209    4.5916 N.am      11 UNK        -0.4279 
     65 CA         34.6892   26.4142    3.9226 C.3       11 UNK         0.1003 
     66 C          36.1883   26.1211    4.2168 C.2       11 UNK         0.5709 
     67 N          36.8428   25.3414    3.3662 N.am      11 UNK        -0.7358 
     68 O          36.7573   26.5692    5.2113 O.2       11 UNK        -0.4999 
     69 C69        33.7791   25.1926    4.2098 C.3       12 UNK        -0.0954 
     70 S70        33.5201   24.8478    5.9857 S.3       12 UNK        -0.2268 
     71 C71        33.2113   23.0525    5.9583 C.3       12 UNK         0.0203 
     72 H72        33.9646   26.1932   -0.7841 H         1 UNK         0.0888 
     73 H73        32.7791   26.0293   -2.0823 H         1 UNK         0.0888 
     74 H74        32.6736   27.3847   -0.9571 H         1 UNK         0.0888 
     75 H75        31.3465   24.3788   -1.6361 H         1 UNK         0.3017 
     76 H76        30.5260   23.7962    1.1643 H         1 UNK         0.0873 
     77 H77        29.7390   21.5706    0.1635 H         1 UNK         0.0745 
     78 H78        30.5414   22.0122   -1.3232 H         1 UNK         0.0745 
     79 H79        32.3044   19.8610    2.1507 H         1 UNK         0.0705 
     80 H80        30.6513   19.9999    1.6266 H         1 UNK         0.0705 
     81 H81        33.2914   21.4419    3.7557 H         1 UNK         0.1334 
     82 H82        30.6130   23.8561    6.0694 H         1 UNK         0.1417 
     83 H83        29.1754   21.7940    2.5947 H         1 UNK         0.1562 
     84 H84        28.2673   23.8840    5.5815 H         1 UNK         0.0748 
     85 H85        27.5997   22.7731    4.4135 H         1 UNK         0.0748 
     86 H86        30.3727   25.4908    3.1191 H         1 UNK         0.0940 
     87 H87        29.8468   25.9125    4.7169 H         1 UNK         0.0940 
     88 H88        30.4500   27.8384    3.2394 H         1 UNK         0.0703 
     89 H89        28.7506   26.7384    1.3458 H         1 UNK         0.3081 
     90 H90        28.1153   29.7556   -0.5257 H         1 UNK         0.0719 
     91 H91        29.9020   27.3408   -1.1024 H         1 UNK         0.0809 
     92 H92        29.2443   28.4610   -2.2900 H         1 UNK         0.0809 
     93 H93        30.4261   29.0205   -1.1157 H         1 UNK         0.0809 
     94 H94        27.4987   26.8369   -0.2578 H         1 UNK         0.2990 
     95 H95        24.3119   27.3005   -0.0757 H         1 UNK         0.0690 
     96 H96        23.3559   26.4200   -2.2224 H         1 UNK         0.0788 
     97 H97        24.7514   27.0538   -3.0953 H         1 UNK         0.0788 
     98 H98        23.6497   28.1488   -2.2793 H         1 UNK         0.0788 
     99 H99        25.1651   25.3120    0.2034 H         1 UNK         0.2993 
    100 H100       26.1737   23.4788    0.0870 H         1 UNK         0.0949 
    101 H101       26.4836   22.4692   -2.7884 H         1 UNK         0.0767 
    102 H102       26.1982   21.4809   -1.3546 H         1 UNK         0.0767 
    103 H103       24.9585   22.5868   -1.9216 H         1 UNK         0.0767 
    104 H104       28.3988   22.4718   -1.0581 H         1 UNK         0.3013 
    105 H105       30.1788   29.4881    4.4692 H         1 UNK         0.3121 
    106 H106       29.5691   30.9070    6.0160 H         1 UNK         0.0774 
    107 H107       27.7421   30.5403    7.6313 H         1 UNK         0.0815 
    108 H108       27.1075   29.2072    6.6833 H         1 UNK         0.0815 
    109 H109       28.6870   29.0699    7.4561 H         1 UNK         0.0815 
    110 H110       27.0616   29.9258    3.7664 H         1 UNK         0.2987 
    111 H111       25.4641   32.2780    3.7913 H         1 UNK         0.0949 
    112 H112       24.6181   31.3770    1.6054 H         1 UNK         0.0806 
    113 H113       25.9304   30.2082    1.5737 H         1 UNK         0.0806 
    114 H114       24.6966   30.1201    2.8302 H         1 UNK         0.0806 
    115 H115       28.4025   31.4563    1.9362 H         1 UNK         0.3010 
    116 H116       28.5077   34.2572    0.8717 H         1 UNK         0.0829 
    117 H117       27.9997   32.5688   -0.9292 H         1 UNK         0.0813 
    118 H118       29.5605   33.3457   -1.1490 H         1 UNK         0.0813 
    119 H119       29.4844   31.7081   -0.5206 H         1 UNK         0.0813 
    120 H120       30.4022   31.3961    2.0697 H         1 UNK         0.3038 
    121 H121       32.4848   33.1702    3.0915 H         1 UNK         0.0769 
    122 H122       33.0581   31.1492    0.8361 H         1 UNK         0.0811 
    123 H123       34.2872   32.0223    1.7394 H         1 UNK         0.0811 
    124 H124       33.1907   32.9006    0.6907 H         1 UNK         0.0811 
    125 H125       34.2026   31.8526    4.1833 H         1 UNK         0.3204 
    126 H126       33.0956   29.6073    5.7036 H         1 UNK         0.0748 
    127 H127       35.3289   29.6580    6.8181 H         1 UNK         0.0771 
    128 H128       35.8952   30.8712    5.6793 H         1 UNK         0.0771 
    129 H129       34.6006   31.2565    6.8145 H         1 UNK         0.0771 
    130 H130       33.6011   27.4562    5.3973 H         1 UNK         0.2980 
    131 H131       34.6231   26.6073    2.8496 H         1 UNK         0.0545 
    132 H132       37.8127   25.1314    3.5430 H         1 UNK         0.3459 
    133 H133       36.3888   24.9608    2.5508 H         1 UNK         0.3459 
    134 H134       34.1724   24.3011    3.7180 H         1 UNK         0.0616 
    135 H135       32.7982   25.3607    3.7629 H         1 UNK         0.0616 
    136 H136       32.9705   22.7185    6.9683 H         1 UNK         0.0634 
    137 H137       34.1329   22.5422    5.6742 H         1 UNK         0.0634 
@<TRIPOS>BOND
     1    1    2 1    
     2    1   72 1    
     3    1   73 1    
     4    1   74 1    
     5    2    3 2    
     6    2    4 am   BACKBONE|DICT|INTERRES
     7    4    5 1    
     8    4   75 1    
     9    5    6 1    
    10    5   35 1    
    11    5   76 1    
    12    6    7 1    
    13    6   77 1    
    14    6   78 1    
    15    7    8 1    
    16    8    9 1    
    17    8   79 1    
    18    8   80 1    
    19    9   10 ar   
    20    9   14 ar   
    21   10   11 ar   
    22   10   81 1    
    23   11   12 ar   
    24   11   71 1    
    25   12   13 ar   
    26   12   82 1    
    27   13   14 ar   
    28   13   15 1    
    29   14   83 1    
    30   15   16 1    
    31   15   84 1    
    32   15   85 1    
    33   16   17 1    
    34   17   18 1    
    35   17   86 1    
    36   17   87 1    
    37   18   19 1    
    38   18   37 1    
    39   18   88 1    
    40   19   20 am   BACKBONE|DICT|INTERRES
    41   19   89 1    
    42   20   21 2    
    43   20   22 1    
    44   22   23 1    
    45   22   24 1    
    46   22   90 1    
    47   23   91 1    
    48   23   92 1    
    49   23   93 1    
    50   24   25 am   BACKBONE|DICT|INTERRES
    51   24   94 1    
    52   25   26 2    
    53   25   27 1    
    54   27   28 1    
    55   27   29 1    
    56   27   95 1    
    57   28   96 1    
    58   28   97 1    
    59   28   98 1    
    60   29   30 am   BACKBONE|DICT|INTERRES
    61   29   99 1    
    62   30   31 2    
    63   30   32 1    
    64   32   33 1    
    65   32   34 1    
    66   32  100 1    
    67   33  101 1    
    68   33  102 1    
    69   33  103 1    
    70   34   35 am   BACKBONE|DICT|INTERRES
    71   34  104 1    
    72   35   36 2    
    73   37   38 2    
    74   37   39 am   BACKBONE|DICT|INTERRES
    75   39   40 1    
    76   39  105 1    
    77   40   41 1    
    78   40   42 1    
    79   40  106 1    
    80   41  107 1    
    81   41  108 1    
    82   41  109 1    
    83   42   43 2    
    84   42   44 am   BACKBONE|DICT|INTERRES
    85   44   45 1    
    86   44  110 1    
    87   45   46 1    
    88   45   47 1    
    89   45  111 1    
    90   46  112 1    
    91   46  113 1    
    92   46  114 1    
    93   47   48 2    
    94   47   49 am   BACKBONE|DICT|INTERRES
    95   49   50 1    
    96   49  115 1    
    97   50   51 1    
    98   50   52 1    
    99   50  116 1    
   100   51  117 1    
   101   51  118 1    
   102   51  119 1    
   103   52   53 2    
   104   52   54 am   BACKBONE|DICT|INTERRES
   105   54   55 1    
   106   54  120 1    
   107   55   56 1    
   108   55   57 1    
   109   55  121 1    
   110   56  122 1    
   111   56  123 1    
   112   56  124 1    
   113   57   58 2    
   114   57   59 am   BACKBONE|DICT|INTERRES
   115   59   60 1    
   116   59  125 1    
   117   60   61 1    
   118   60   62 1    
   119   60  126 1    
   120   61  127 1    
   121   61  128 1    
   122   61  129 1    
   123   62   63 2    
   124   62   64 am   BACKBONE|DICT|INTERRES
   125   64   65 1    
   126   64  130 1    
   127   65   66 1    
   128   65   69 1    
   129   65  131 1    
   130   66   67 am   BACKBONE|DICT|INTERRES
   131   66   68 2    
   132   67  132 1    
   133   67  133 1    
   134   69   70 1    
   135   69  134 1    
   136   69  135 1    
   137   70   71 1    
   138   71  136 1    
   139   71  137 1    
@<TRIPOS>SUBSTRUCTURE
     1 UNK         1 GROUP             0       ****    0 ROOT    
