@<TRIPOS>MOLECULE
3R136
137   139    1
SMALL
USER_CHARGES


@<TRIPOS>ATOM
      1 CA         28.6411   28.0725   -2.0423 C.3       0 UNK        -0.1979 
      2 C          28.5294   26.8529   -1.1410 C.2       0 UNK         0.4864 
      3 O          27.8939   26.9293   -0.0895 O.2       0 UNK        -0.5359 
      4 N          29.1402   25.7305   -1.5431 N.am      1 UNK        -0.4318 
      5 CA         29.1566   24.4572   -0.8068 C.3       1 UNK         0.0824 
      6 C6         30.2087   23.4762   -1.3814 C.3       12 UNK        -0.0944 
      7 S7         31.9049   24.1423   -1.3780 S.3       12 UNK        -0.2672 
      8 C8         32.6626   23.2026   -0.0149 C.3       12 UNK         0.0333 
      9 C9         32.3435   23.8235    1.3359 C.ar      12 UNK        -0.0807 
     10 C10        33.0542   24.9525    1.7522 C.ar      12 UNK        -0.0894 
     11 C11        32.7868   25.5395    2.9892 C.ar      12 UNK        -0.0804 
     12 C12        31.8278   24.9700    3.8266 C.ar      12 UNK        -0.0824 
     13 C13        31.1031   23.8456    3.4244 C.ar      12 UNK        -0.0762 
     14 C14        31.3609   23.2765    2.1713 C.ar      12 UNK        -0.0782 
     15 C15        30.0707   23.2375    4.3663 C.3       12 UNK         0.0230 
     16 S16        28.3809   23.8575    4.0721 S.3       12 UNK        -0.2608 
     17 C17        28.5314   25.6463    4.4212 C.3       12 UNK        -0.0989 
     18 CA         28.3340   26.4605    3.1158 C.3       5 UNK         0.0716 
     19 N          26.9472   26.4154    2.6270 N.am      5 UNK        -0.4135 
     20 C          25.8774   26.9853    3.2045 C.2       4 UNK         0.5031 
     21 O          25.9003   27.5776    4.2843 O.2       4 UNK        -0.5229 
     22 CA         24.5522   26.8978    2.4315 C.3       4 UNK         0.0329 
     23 CB         24.4868   27.9920    1.3528 C.3       4 UNK        -0.2001 
     24 N          24.3330   25.5917    1.8108 N.am      4 UNK        -0.4303 
     25 C          24.1478   24.4404    2.4680 C.2       3 UNK         0.5044 
     26 O          24.1190   24.3543    3.6960 O.2       3 UNK        -0.5152 
     27 CA         23.9576   23.1612    1.6306 C.3       3 UNK         0.0319 
     28 CB         22.4621   22.8825    1.3829 C.3       3 UNK        -0.2001 
     29 N          24.7267   23.1086    0.3776 N.am      3 UNK        -0.4354 
     30 C          24.5980   23.8442   -0.7349 C.2       2 UNK         0.4964 
     31 O          23.8017   24.7763   -0.8567 O.2       2 UNK        -0.5047 
     32 CA         25.5594   23.5016   -1.8865 C.3       2 UNK         0.0288 
     33 CB         25.0067   23.9449   -3.2537 C.3       2 UNK        -0.2113 
     34 N          26.8802   24.1031   -1.6972 N.am      2 UNK        -0.4145 
     35 C          27.7846   23.7485   -0.7721 C.2       1 UNK         0.5006 
     36 O          27.5898   22.8640    0.0631 O.2       1 UNK        -0.5103 
     37 C          28.8561   27.9166    3.1662 C.2       5 UNK         0.5055 
     38 O          29.5484   28.3154    4.1062 O.2       5 UNK        -0.5220 
     39 N          28.4854   28.6775    2.1254 N.am      6 UNK        -0.4450 
     40 CA         28.7471   30.1061    1.9489 C.3       6 UNK         0.0367 
     41 CB         27.6192   30.7056    1.0934 C.3       6 UNK        -0.1929 
     42 C          30.1148   30.3952    1.3070 C.2       6 UNK         0.5070 
     43 O          30.5386   31.5521    1.2872 O.2       6 UNK        -0.5237 
     44 N          30.7806   29.3541    0.7911 N.am      7 UNK        -0.4739 
     45 CA         32.1076   29.4166    0.1776 C.3       7 UNK         0.0276 
     46 CB         32.4365   28.0360   -0.4121 C.3       7 UNK        -0.1927 
     47 C          33.1994   29.8617    1.1680 C.2       7 UNK         0.5013 
     48 O          33.0307   29.7058    2.3802 O.2       7 UNK        -0.5193 
     49 N          34.2987   30.4047    0.6233 N.am      8 UNK        -0.4253 
     50 CA         35.4960   30.8748    1.3374 C.3       8 UNK         0.0242 
     51 CB         36.3339   29.6705    1.8164 C.3       8 UNK        -0.2000 
     52 C          35.1791   31.8820    2.4638 C.2       8 UNK         0.4948 
     53 O          35.7040   31.7566    3.5716 O.2       8 UNK        -0.5275 
     54 N          34.3012   32.8475    2.1465 N.am      9 UNK        -0.4246 
     55 CA         33.7342   33.8634    3.0426 C.3       9 UNK         0.0261 
     56 CB         34.8218   34.8472    3.5274 C.3       9 UNK        -0.1959 
     57 C          32.9155   33.2433    4.1936 C.2       9 UNK         0.5033 
     58 O          33.0782   33.6413    5.3490 O.2       9 UNK        -0.5390 
     59 N          32.0437   32.2872    3.8390 N.am      10 UNK        -0.4215 
     60 CA         31.1477   31.5219    4.7100 C.3       10 UNK         0.0240 
     61 CB         30.0348   32.4235    5.2845 C.3       10 UNK        -0.1982 
     62 C          31.8966   30.7137    5.7802 C.2       10 UNK         0.4970 
     63 O          31.6906   30.9338    6.9760 O.2       10 UNK        -0.4916 
     64 N          32.7523   29.7872    5.3267 N.am      11 UNK        -0.4279 
     65 CA         33.4883   28.8564    6.1998 C.3       11 UNK         0.1003 
     66 C          32.5966   27.8255    6.9613 C.2       11 UNK         0.5709 
     67 N          31.3498   27.5905    6.5619 N.am      11 UNK        -0.7358 
     68 O          33.0421   27.2450    7.9485 O.2       11 UNK        -0.4999 
     69 C69        34.7358   28.2478    5.4823 C.3       12 UNK        -0.0954 
     70 S70        34.5985   26.5455    4.8235 S.3       12 UNK        -0.2268 
     71 C71        33.4904   26.8148    3.4133 C.3       12 UNK         0.0203 
     72 H72        27.6494   28.4298   -2.3113 H         1 UNK         0.0888 
     73 H73        29.1629   28.8762   -1.5284 H         1 UNK         0.0888 
     74 H74        29.1817   27.8523   -2.9605 H         1 UNK         0.0888 
     75 H75        29.6706   25.7348   -2.4031 H         1 UNK         0.3017 
     76 H76        29.4245   24.6764    0.2290 H         1 UNK         0.0873 
     77 H77        29.9610   23.2155   -2.4124 H         1 UNK         0.0745 
     78 H78        30.1973   22.5347   -0.8286 H         1 UNK         0.0745 
     79 H79        33.7441   23.1959   -0.1589 H         1 UNK         0.0705 
     80 H80        32.3512   22.1576   -0.0516 H         1 UNK         0.0705 
     81 H81        33.8039   25.3827    1.1020 H         1 UNK         0.1334 
     82 H82        31.6506   25.4126    4.7963 H         1 UNK         0.1417 
     83 H83        30.8053   22.4043    1.8538 H         1 UNK         0.1562 
     84 H84        30.3456   23.4292    5.4048 H         1 UNK         0.0748 
     85 H85        30.0680   22.1525    4.2528 H         1 UNK         0.0748 
     86 H86        29.4937   25.8515    4.8839 H         1 UNK         0.0940 
     87 H87        27.7907   25.9242    5.1720 H         1 UNK         0.0940 
     88 H88        28.9422   25.9869    2.3432 H         1 UNK         0.0703 
     89 H89        26.8304   26.0137    1.7064 H         1 UNK         0.3081 
     90 H90        23.7408   27.0687    3.1421 H         1 UNK         0.0719 
     91 H91        25.2592   27.8610    0.5934 H         1 UNK         0.0809 
     92 H92        23.5201   27.9943    0.8489 H         1 UNK         0.0809 
     93 H93        24.6244   28.9809    1.7921 H         1 UNK         0.0809 
     94 H94        24.2679   25.5585    0.7970 H         1 UNK         0.2990 
     95 H95        24.3444   22.3414    2.2382 H         1 UNK         0.0690 
     96 H96        22.3158   21.9372    0.8601 H         1 UNK         0.0788 
     97 H97        21.9918   23.6694    0.7924 H         1 UNK         0.0788 
     98 H98        21.9178   22.8184    2.3260 H         1 UNK         0.0788 
     99 H99        25.5175   22.4734    0.3970 H         1 UNK         0.2993 
    100 H100       25.6754   22.4159   -1.9120 H         1 UNK         0.0949 
    101 H101       25.6509   23.6135   -4.0682 H         1 UNK         0.0767 
    102 H102       24.0179   23.5195   -3.4309 H         1 UNK         0.0767 
    103 H103       24.9115   25.0293   -3.3214 H         1 UNK         0.0767 
    104 H104       27.1251   24.8517   -2.3276 H         1 UNK         0.3013 
    105 H105       27.9895   28.2112    1.3696 H         1 UNK         0.3121 
    106 H106       28.7222   30.5919    2.9254 H         1 UNK         0.0774 
    107 H107       27.7637   31.7774    0.9500 H         1 UNK         0.0815 
    108 H108       27.5724   30.2470    0.1050 H         1 UNK         0.0815 
    109 H109       26.6483   30.5736    1.5709 H         1 UNK         0.0815 
    110 H110       30.3744   28.4380    0.9024 H         1 UNK         0.2987 
    111 H111       32.0651   30.1472   -0.6331 H         1 UNK         0.0949 
    112 H112       33.4349   28.0154   -0.8509 H         1 UNK         0.0806 
    113 H113       32.3989   27.2592    0.3503 H         1 UNK         0.0806 
    114 H114       31.7348   27.7612   -1.1995 H         1 UNK         0.0806 
    115 H115       34.3326   30.4985   -0.3828 H         1 UNK         0.3010 
    116 H116       36.0984   31.4218    0.6104 H         1 UNK         0.0829 
    117 H117       36.6229   29.0336    0.9806 H         1 UNK         0.0813 
    118 H118       37.2525   29.9968    2.3055 H         1 UNK         0.0813 
    119 H119       35.7854   29.0546    2.5270 H         1 UNK         0.0813 
    120 H120       33.9309   32.8444    1.2060 H         1 UNK         0.3038 
    121 H121       33.0237   34.4357    2.4440 H         1 UNK         0.0769 
    122 H122       34.3793   35.6702    4.0898 H         1 UNK         0.0811 
    123 H123       35.3648   35.2837    2.6893 H         1 UNK         0.0811 
    124 H124       35.5469   34.3624    4.1816 H         1 UNK         0.0811 
    125 H125       31.9982   32.0245    2.8606 H         1 UNK         0.3204 
    126 H126       30.6709   30.7772    4.0778 H         1 UNK         0.0748 
    127 H127       29.3209   31.8371    5.8644 H         1 UNK         0.0771 
    128 H128       30.4350   33.1946    5.9436 H         1 UNK         0.0771 
    129 H129       29.4773   32.9174    4.4887 H         1 UNK         0.0771 
    130 H130       32.8789   29.6795    4.3232 H         1 UNK         0.2980 
    131 H131       33.8960   29.4891    6.9911 H         1 UNK         0.0545 
    132 H132       30.7873   26.9434    7.0892 H         1 UNK         0.3459 
    133 H133       30.9563   28.0589    5.7556 H         1 UNK         0.3459 
    134 H134       35.0831   28.9102    4.6893 H         1 UNK         0.0616 
    135 H135       35.5589   28.2169    6.1977 H         1 UNK         0.0616 
    136 H136       34.0595   27.2436    2.5881 H         1 UNK         0.0634 
    137 H137       32.7226   27.5379    3.6855 H         1 UNK         0.0634 
@<TRIPOS>BOND
     1    1    2 1    
     2    1   72 1    
     3    1   73 1    
     4    1   74 1    
     5    2    3 2    
     6    2    4 am   BACKBONE|DICT|INTERRES
     7    4    5 1    
     8    4   75 1    
     9    5    6 1    
    10    5   35 1    
    11    5   76 1    
    12    6    7 1    
    13    6   77 1    
    14    6   78 1    
    15    7    8 1    
    16    8    9 1    
    17    8   79 1    
    18    8   80 1    
    19    9   10 ar   
    20    9   14 ar   
    21   10   11 ar   
    22   10   81 1    
    23   11   12 ar   
    24   11   71 1    
    25   12   13 ar   
    26   12   82 1    
    27   13   14 ar   
    28   13   15 1    
    29   14   83 1    
    30   15   16 1    
    31   15   84 1    
    32   15   85 1    
    33   16   17 1    
    34   17   18 1    
    35   17   86 1    
    36   17   87 1    
    37   18   19 1    
    38   18   37 1    
    39   18   88 1    
    40   19   20 am   BACKBONE|DICT|INTERRES
    41   19   89 1    
    42   20   21 2    
    43   20   22 1    
    44   22   23 1    
    45   22   24 1    
    46   22   90 1    
    47   23   91 1    
    48   23   92 1    
    49   23   93 1    
    50   24   25 am   BACKBONE|DICT|INTERRES
    51   24   94 1    
    52   25   26 2    
    53   25   27 1    
    54   27   28 1    
    55   27   29 1    
    56   27   95 1    
    57   28   96 1    
    58   28   97 1    
    59   28   98 1    
    60   29   30 am   BACKBONE|DICT|INTERRES
    61   29   99 1    
    62   30   31 2    
    63   30   32 1    
    64   32   33 1    
    65   32   34 1    
    66   32  100 1    
    67   33  101 1    
    68   33  102 1    
    69   33  103 1    
    70   34   35 am   BACKBONE|DICT|INTERRES
    71   34  104 1    
    72   35   36 2    
    73   37   38 2    
    74   37   39 am   BACKBONE|DICT|INTERRES
    75   39   40 1    
    76   39  105 1    
    77   40   41 1    
    78   40   42 1    
    79   40  106 1    
    80   41  107 1    
    81   41  108 1    
    82   41  109 1    
    83   42   43 2    
    84   42   44 am   BACKBONE|DICT|INTERRES
    85   44   45 1    
    86   44  110 1    
    87   45   46 1    
    88   45   47 1    
    89   45  111 1    
    90   46  112 1    
    91   46  113 1    
    92   46  114 1    
    93   47   48 2    
    94   47   49 am   BACKBONE|DICT|INTERRES
    95   49   50 1    
    96   49  115 1    
    97   50   51 1    
    98   50   52 1    
    99   50  116 1    
   100   51  117 1    
   101   51  118 1    
   102   51  119 1    
   103   52   53 2    
   104   52   54 am   BACKBONE|DICT|INTERRES
   105   54   55 1    
   106   54  120 1    
   107   55   56 1    
   108   55   57 1    
   109   55  121 1    
   110   56  122 1    
   111   56  123 1    
   112   56  124 1    
   113   57   58 2    
   114   57   59 am   BACKBONE|DICT|INTERRES
   115   59   60 1    
   116   59  125 1    
   117   60   61 1    
   118   60   62 1    
   119   60  126 1    
   120   61  127 1    
   121   61  128 1    
   122   61  129 1    
   123   62   63 2    
   124   62   64 am   BACKBONE|DICT|INTERRES
   125   64   65 1    
   126   64  130 1    
   127   65   66 1    
   128   65   69 1    
   129   65  131 1    
   130   66   67 am   BACKBONE|DICT|INTERRES
   131   66   68 2    
   132   67  132 1    
   133   67  133 1    
   134   69   70 1    
   135   69  134 1    
   136   69  135 1    
   137   70   71 1    
   138   71  136 1    
   139   71  137 1    
@<TRIPOS>SUBSTRUCTURE
     1 UNK         1 GROUP             0       ****    0 ROOT    
