@<TRIPOS>MOLECULE
3R136
137   139    1
SMALL
USER_CHARGES


@<TRIPOS>ATOM
      1 CA         26.6173   28.2784   -1.8090 C.3       0 UNK        -0.1979 
      2 C          27.3368   27.0532   -1.2684 C.2       0 UNK         0.4864 
      3 O          26.7675   26.3235   -0.4536 O.2       0 UNK        -0.5359 
      4 N          28.5822   26.8232   -1.7045 N.am      1 UNK        -0.4318 
      5 CA         29.4209   25.6878   -1.3088 C.3       1 UNK         0.0824 
      6 C6         30.8560   25.8423   -1.8741 C.3       12 UNK        -0.0944 
      7 S7         31.9991   24.4912   -1.4233 S.3       12 UNK        -0.2672 
      8 C8         32.8854   25.1931    0.0068 C.3       12 UNK         0.0333 
      9 C9         32.0487   25.2622    1.2819 C.ar      12 UNK        -0.0807 
     10 C10        32.1474   26.3861    2.1088 C.ar      12 UNK        -0.0894 
     11 C11        31.4546   26.4408    3.3210 C.ar      12 UNK        -0.0804 
     12 C12        30.6537   25.3626    3.7033 C.ar      12 UNK        -0.0824 
     13 C13        30.5265   24.2391    2.8810 C.ar      12 UNK        -0.0762 
     14 C14        31.2366   24.1904    1.6771 C.ar      12 UNK        -0.0782 
     15 C15        29.6597   23.0620    3.3152 C.3       12 UNK         0.0230 
     16 S16        27.9220   23.2394    2.7868 S.3       12 UNK        -0.2608 
     17 C17        27.3474   24.6013    3.8571 C.3       12 UNK        -0.0989 
     18 CA         27.2644   25.9247    3.0485 C.3       5 UNK         0.0716 
     19 N          26.0736   26.0056    2.1963 N.am      5 UNK        -0.4135 
     20 C          24.7995   26.1421    2.5966 C.2       4 UNK         0.5031 
     21 O          24.4394   26.1601    3.7739 O.2       4 UNK        -0.5229 
     22 CA         23.7459   26.3074    1.4900 C.3       4 UNK         0.0329 
     23 CB         23.5961   27.7921    1.1180 C.3       4 UNK        -0.2001 
     24 N          24.0927   25.5440    0.2912 N.am      4 UNK        -0.4303 
     25 C          23.7958   24.2533    0.0986 C.2       3 UNK         0.5044 
     26 O          23.1306   23.5733    0.8805 O.2       3 UNK        -0.5152 
     27 CA         24.3664   23.6060   -1.1672 C.3       3 UNK         0.0319 
     28 CB         24.1529   24.4648   -2.4290 C.3       3 UNK        -0.2001 
     29 N          25.7931   23.3704   -0.9658 N.am      3 UNK        -0.4354 
     30 C          26.4244   22.2076   -1.1763 C.2       2 UNK         0.4964 
     31 O          25.8629   21.1968   -1.6027 O.2       2 UNK        -0.5047 
     32 CA         27.9292   22.1457   -0.8349 C.3       2 UNK         0.0288 
     33 CB         28.7168   21.2082   -1.7758 C.3       2 UNK        -0.2113 
     34 N          28.5787   23.4601   -0.7364 N.am      2 UNK        -0.4145 
     35 C          28.7565   24.3559   -1.7202 C.2       1 UNK         0.5006 
     36 O          28.4091   24.1883   -2.8919 O.2       1 UNK        -0.5103 
     37 C          27.4571   27.2108    3.8823 C.2       5 UNK         0.5055 
     38 O          27.7814   27.1553    5.0696 O.2       5 UNK        -0.5220 
     39 N          27.2762   28.3541    3.2106 N.am      6 UNK        -0.4450 
     40 CA         27.4986   29.7035    3.7267 C.3       6 UNK         0.0367 
     41 CB         26.1532   30.3179    4.1581 C.3       6 UNK        -0.1929 
     42 C          28.2314   30.5352    2.6598 C.2       6 UNK         0.5070 
     43 O          27.8897   31.6967    2.4320 O.2       6 UNK        -0.5237 
     44 N          29.2030   29.9012    1.9893 N.am      7 UNK        -0.4739 
     45 CA         30.0376   30.4987    0.9458 C.3       7 UNK         0.0276 
     46 CB         30.7113   29.3642    0.1556 C.3       7 UNK        -0.1927 
     47 C          31.0982   31.4521    1.5234 C.2       7 UNK         0.5013 
     48 O          31.3563   31.4407    2.7304 O.2       7 UNK        -0.5193 
     49 N          31.7292   32.2305    0.6342 N.am      8 UNK        -0.4253 
     50 CA         32.8425   33.1355    0.9328 C.3       8 UNK         0.0242 
     51 CB         32.9667   34.1665   -0.2050 C.3       8 UNK        -0.2000 
     52 C          34.1539   32.3597    1.1726 C.2       8 UNK         0.4948 
     53 O          35.0658   32.4036    0.3444 O.2       8 UNK        -0.5275 
     54 N          34.2058   31.6468    2.2988 N.am      9 UNK        -0.4246 
     55 CA         35.3360   30.8717    2.7973 C.3       9 UNK         0.0261 
     56 CB         35.1114   29.3870    2.4573 C.3       9 UNK        -0.1959 
     57 C          35.4300   31.0837    4.3137 C.2       9 UNK         0.5033 
     58 O          34.4896   31.6066    4.9201 O.2       9 UNK        -0.5390 
     59 N          36.5416   30.6453    4.9183 N.am      10 UNK        -0.4215 
     60 CA         36.8292   30.7413    6.3575 C.3       10 UNK         0.0240 
     61 CB         38.3500   30.6116    6.5693 C.3       10 UNK        -0.1982 
     62 C          36.0226   29.7437    7.2224 C.2       10 UNK         0.4970 
     63 O          36.5847   29.1010    8.1115 O.2       10 UNK        -0.4916 
     64 N          34.7233   29.6253    6.9393 N.am      11 UNK        -0.4279 
     65 CA         33.7511   28.8038    7.6662 C.3       11 UNK         0.1003 
     66 C          33.3082   29.4713    8.9957 C.2       11 UNK         0.5709 
     67 N          32.9069   28.6789    9.9804 N.am      11 UNK        -0.7358 
     68 O          33.2926   30.6937    9.1353 O.2       11 UNK        -0.4999 
     69 C69        32.5317   28.4716    6.7681 C.3       12 UNK        -0.0954 
     70 S70        33.0008   27.3963    5.3740 S.3       12 UNK        -0.2268 
     71 C71        31.5985   27.6402    4.2447 C.3       12 UNK         0.0203 
     72 H72        27.2101   28.8005   -2.5596 H         1 UNK         0.0888 
     73 H73        25.6721   27.9872   -2.2660 H         1 UNK         0.0888 
     74 H74        26.4055   28.9754   -0.9989 H         1 UNK         0.0888 
     75 H75        28.9773   27.4337   -2.4049 H         1 UNK         0.3017 
     76 H76        29.4894   25.7176   -0.2192 H         1 UNK         0.0873 
     77 H77        31.2853   26.7899   -1.5454 H         1 UNK         0.0745 
     78 H78        30.8240   25.8939   -2.9642 H         1 UNK         0.0745 
     79 H79        33.7586   24.5713    0.2079 H         1 UNK         0.0705 
     80 H80        33.2683   26.1785   -0.2634 H         1 UNK         0.0705 
     81 H81        32.7938   27.2060    1.8284 H         1 UNK         0.1334 
     82 H82        30.1414   25.3986    4.6544 H         1 UNK         0.1417 
     83 H83        31.1747   23.3069    1.0563 H         1 UNK         0.1562 
     84 H84        29.7029   22.9391    4.3985 H         1 UNK         0.0748 
     85 H85        30.0569   22.1366    2.8950 H         1 UNK         0.0748 
     86 H86        28.0156   24.6757    4.7145 H         1 UNK         0.0940 
     87 H87        26.3767   24.3372    4.2784 H         1 UNK         0.0940 
     88 H88        28.1093   25.9421    2.3577 H         1 UNK         0.0703 
     89 H89        26.2645   26.0360    1.1955 H         1 UNK         0.3081 
     90 H90        22.7884   25.9552    1.8802 H         1 UNK         0.0719 
     91 H91        23.3290   28.3881    1.9920 H         1 UNK         0.0809 
     92 H92        24.5196   28.2054    0.7113 H         1 UNK         0.0809 
     93 H93        22.8100   27.9361    0.3766 H         1 UNK         0.0809 
     94 H94        24.7079   25.9987   -0.3722 H         1 UNK         0.2990 
     95 H95        23.8357   22.6618   -1.3075 H         1 UNK         0.0690 
     96 H96        24.7349   25.3865   -2.4080 H         1 UNK         0.0788 
     97 H97        24.4451   23.9160   -3.3244 H         1 UNK         0.0788 
     98 H98        23.1031   24.7374   -2.5454 H         1 UNK         0.0788 
     99 H99        26.3272   24.1542   -0.6112 H         1 UNK         0.2993 
    100 H100       27.9804   21.7120    0.1647 H         1 UNK         0.0949 
    101 H101       28.3392   20.1866   -1.7177 H         1 UNK         0.0767 
    102 H102       28.6418   21.5217   -2.8174 H         1 UNK         0.0767 
    103 H103       29.7736   21.1765   -1.5100 H         1 UNK         0.0767 
    104 H104       28.8736   23.7157    0.1959 H         1 UNK         0.3013 
    105 H105       27.0190   28.3005    2.2348 H         1 UNK         0.3121 
    106 H106       28.1580   29.6666    4.5966 H         1 UNK         0.0774 
    107 H107       25.4663   30.4129    3.3163 H         1 UNK         0.0815 
    108 H108       25.6669   29.7081    4.9196 H         1 UNK         0.0815 
    109 H109       26.2941   31.3130    4.5818 H         1 UNK         0.0815 
    110 H110       29.4444   28.9644    2.2749 H         1 UNK         0.2987 
    111 H111       29.3924   31.0676    0.2723 H         1 UNK         0.0949 
    112 H112       29.9790   28.6441   -0.2045 H         1 UNK         0.0806 
    113 H113       31.2419   29.7471   -0.7169 H         1 UNK         0.0806 
    114 H114       31.4369   28.8271    0.7651 H         1 UNK         0.0806 
    115 H115       31.4759   32.1497   -0.3401 H         1 UNK         0.3010 
    116 H116       32.6121   33.6812    1.8507 H         1 UNK         0.0829 
    117 H117       33.1720   33.6901   -1.1646 H         1 UNK         0.0813 
    118 H118       33.7795   34.8672   -0.0087 H         1 UNK         0.0813 
    119 H119       32.0542   34.7536   -0.3100 H         1 UNK         0.0813 
    120 H120       33.4032   31.6760    2.9230 H         1 UNK         0.3038 
    121 H121       36.2643   31.2231    2.3418 H         1 UNK         0.0769 
    122 H122       35.0117   29.2384    1.3819 H         1 UNK         0.0811 
    123 H123       34.2089   29.0005    2.9320 H         1 UNK         0.0811 
    124 H124       35.9460   28.7703    2.7923 H         1 UNK         0.0811 
    125 H125       37.2466   30.1913    4.3549 H         1 UNK         0.3204 
    126 H126       36.5380   31.7394    6.6918 H         1 UNK         0.0748 
    127 H127       38.7157   29.6273    6.2739 H         1 UNK         0.0771 
    128 H128       38.8967   31.3601    5.9952 H         1 UNK         0.0771 
    129 H129       38.6152   30.7580    7.6173 H         1 UNK         0.0771 
    130 H130       34.3465   30.2428    6.2264 H         1 UNK         0.2980 
    131 H131       34.2425   27.8645    7.9288 H         1 UNK         0.0545 
    132 H132       32.6033   29.0919   10.8485 H         1 UNK         0.3459 
    133 H133       32.9050   27.6762    9.8753 H         1 UNK         0.3459 
    134 H134       32.0752   29.3862    6.3843 H         1 UNK         0.0616 
    135 H135       31.7584   27.9513    7.3364 H         1 UNK         0.0616 
    136 H136       30.6810   27.7777    4.8196 H         1 UNK         0.0634 
    137 H137       31.7468   28.5565    3.6707 H         1 UNK         0.0634 
@<TRIPOS>BOND
     1    1    2 1    
     2    1   72 1    
     3    1   73 1    
     4    1   74 1    
     5    2    3 2    
     6    2    4 am   BACKBONE|DICT|INTERRES
     7    4    5 1    
     8    4   75 1    
     9    5    6 1    
    10    5   35 1    
    11    5   76 1    
    12    6    7 1    
    13    6   77 1    
    14    6   78 1    
    15    7    8 1    
    16    8    9 1    
    17    8   79 1    
    18    8   80 1    
    19    9   10 ar   
    20    9   14 ar   
    21   10   11 ar   
    22   10   81 1    
    23   11   12 ar   
    24   11   71 1    
    25   12   13 ar   
    26   12   82 1    
    27   13   14 ar   
    28   13   15 1    
    29   14   83 1    
    30   15   16 1    
    31   15   84 1    
    32   15   85 1    
    33   16   17 1    
    34   17   18 1    
    35   17   86 1    
    36   17   87 1    
    37   18   19 1    
    38   18   37 1    
    39   18   88 1    
    40   19   20 am   BACKBONE|DICT|INTERRES
    41   19   89 1    
    42   20   21 2    
    43   20   22 1    
    44   22   23 1    
    45   22   24 1    
    46   22   90 1    
    47   23   91 1    
    48   23   92 1    
    49   23   93 1    
    50   24   25 am   BACKBONE|DICT|INTERRES
    51   24   94 1    
    52   25   26 2    
    53   25   27 1    
    54   27   28 1    
    55   27   29 1    
    56   27   95 1    
    57   28   96 1    
    58   28   97 1    
    59   28   98 1    
    60   29   30 am   BACKBONE|DICT|INTERRES
    61   29   99 1    
    62   30   31 2    
    63   30   32 1    
    64   32   33 1    
    65   32   34 1    
    66   32  100 1    
    67   33  101 1    
    68   33  102 1    
    69   33  103 1    
    70   34   35 am   BACKBONE|DICT|INTERRES
    71   34  104 1    
    72   35   36 2    
    73   37   38 2    
    74   37   39 am   BACKBONE|DICT|INTERRES
    75   39   40 1    
    76   39  105 1    
    77   40   41 1    
    78   40   42 1    
    79   40  106 1    
    80   41  107 1    
    81   41  108 1    
    82   41  109 1    
    83   42   43 2    
    84   42   44 am   BACKBONE|DICT|INTERRES
    85   44   45 1    
    86   44  110 1    
    87   45   46 1    
    88   45   47 1    
    89   45  111 1    
    90   46  112 1    
    91   46  113 1    
    92   46  114 1    
    93   47   48 2    
    94   47   49 am   BACKBONE|DICT|INTERRES
    95   49   50 1    
    96   49  115 1    
    97   50   51 1    
    98   50   52 1    
    99   50  116 1    
   100   51  117 1    
   101   51  118 1    
   102   51  119 1    
   103   52   53 2    
   104   52   54 am   BACKBONE|DICT|INTERRES
   105   54   55 1    
   106   54  120 1    
   107   55   56 1    
   108   55   57 1    
   109   55  121 1    
   110   56  122 1    
   111   56  123 1    
   112   56  124 1    
   113   57   58 2    
   114   57   59 am   BACKBONE|DICT|INTERRES
   115   59   60 1    
   116   59  125 1    
   117   60   61 1    
   118   60   62 1    
   119   60  126 1    
   120   61  127 1    
   121   61  128 1    
   122   61  129 1    
   123   62   63 2    
   124   62   64 am   BACKBONE|DICT|INTERRES
   125   64   65 1    
   126   64  130 1    
   127   65   66 1    
   128   65   69 1    
   129   65  131 1    
   130   66   67 am   BACKBONE|DICT|INTERRES
   131   66   68 2    
   132   67  132 1    
   133   67  133 1    
   134   69   70 1    
   135   69  134 1    
   136   69  135 1    
   137   70   71 1    
   138   71  136 1    
   139   71  137 1    
@<TRIPOS>SUBSTRUCTURE
     1 UNK         1 GROUP             0       ****    0 ROOT    
