@<TRIPOS>MOLECULE
3R136
137   139    1
SMALL
USER_CHARGES


@<TRIPOS>ATOM
      1 CA         30.2370   22.0296   -4.8781 C.3       0 UNK        -0.1979 
      2 C          29.4633   23.1910   -4.2719 C.2       0 UNK         0.4864 
      3 O          28.6454   23.8052   -4.9581 O.2       0 UNK        -0.5359 
      4 N          29.7166   23.4955   -2.9916 N.am      1 UNK        -0.4318 
      5 CA         29.0827   24.5931   -2.2462 C.3       1 UNK         0.0824 
      6 C6         29.8368   24.9221   -0.9339 C.3       12 UNK        -0.0944 
      7 S7         31.6048   25.2888   -1.1997 S.3       12 UNK        -0.2672 
      8 C8         32.4220   23.9966   -0.2105 C.3       12 UNK         0.0333 
      9 C9         32.2663   24.2253    1.2879 C.ar      12 UNK        -0.0807 
     10 C10        33.1339   25.0876    1.9653 C.ar      12 UNK        -0.0894 
     11 C11        33.0309   25.2599    3.3501 C.ar      12 UNK        -0.0804 
     12 C12        32.0311   24.5792    4.0555 C.ar      12 UNK        -0.0824 
     13 C13        31.1527   23.7192    3.3868 C.ar      12 UNK        -0.0762 
     14 C14        31.2830   23.5405    2.0073 C.ar      12 UNK        -0.0782 
     15 C15        30.0865   22.9408    4.1458 C.3       12 UNK         0.0230 
     16 S16        28.4109   23.5794    3.8192 S.3       12 UNK        -0.2608 
     17 C17        28.3493   25.0359    4.9134 C.3       12 UNK        -0.0989 
     18 CA         28.5919   26.3675    4.1593 C.3       5 UNK         0.0716 
     19 N          27.5941   26.6000    3.1047 N.am      5 UNK        -0.4135 
     20 C          27.7166   27.4235    2.0555 C.2       4 UNK         0.5031 
     21 O          28.7209   28.1153    1.8643 O.2       4 UNK        -0.5229 
     22 CA         26.5124   27.5549    1.0981 C.3       4 UNK         0.0329 
     23 CB         26.9183   28.1703   -0.2546 C.3       4 UNK        -0.2001 
     24 N          25.7633   26.3103    0.8655 N.am      4 UNK        -0.4303 
     25 C          24.8988   25.7572    1.7320 C.2       3 UNK         0.5044 
     26 O          24.7468   26.1747    2.8807 O.2       3 UNK        -0.5152 
     27 CA         24.0440   24.5617    1.2699 C.3       3 UNK         0.0319 
     28 CB         22.5807   24.9959    1.0817 C.3       3 UNK        -0.2001 
     29 N          24.5108   23.9406    0.0308 N.am      3 UNK        -0.4354 
     30 C          25.5092   23.0529   -0.0478 C.2       2 UNK         0.4964 
     31 O          26.1408   22.6434    0.9263 O.2       2 UNK        -0.5047 
     32 CA         25.8903   22.5423   -1.4506 C.3       2 UNK         0.0288 
     33 CB         24.8435   22.8446   -2.5490 C.3       2 UNK        -0.2113 
     34 N          27.2130   23.0385   -1.8424 N.am      2 UNK        -0.4145 
     35 C          27.5966   24.3231   -1.9304 C.2       1 UNK         0.5006 
     36 O          26.8382   25.2772   -1.7475 O.2       1 UNK        -0.5103 
     37 C          28.6996   27.5695    5.1282 C.2       5 UNK         0.5055 
     38 O          28.6139   27.4072    6.3463 O.2       5 UNK        -0.5220 
     39 N          28.9064   28.7553    4.5547 N.am      6 UNK        -0.4450 
     40 CA         29.1916   30.0257    5.2034 C.3       6 UNK         0.0367 
     41 CB         27.9380   30.6124    5.8821 C.3       6 UNK        -0.1929 
     42 C          29.7673   30.9462    4.1268 C.2       6 UNK         0.5070 
     43 O          30.9571   31.2627    4.1639 O.2       6 UNK        -0.5237 
     44 N          28.9105   31.2891    3.1535 N.am      7 UNK        -0.4739 
     45 CA         29.1704   32.2008    2.0350 C.3       7 UNK         0.0276 
     46 CB         27.8452   32.4682    1.3017 C.3       7 UNK        -0.1927 
     47 C          30.2482   31.7378    1.0382 C.2       7 UNK         0.5013 
     48 O          30.7418   32.5703    0.2766 O.2       7 UNK        -0.5193 
     49 N          30.6043   30.4443    1.0560 N.am      8 UNK        -0.4253 
     50 CA         31.6969   29.8527    0.2757 C.3       8 UNK         0.0242 
     51 CB         31.7545   28.3458    0.5637 C.3       8 UNK        -0.2000 
     52 C          33.0768   30.4924    0.5273 C.2       8 UNK         0.4948 
     53 O          33.9067   30.5060   -0.3832 O.2       8 UNK        -0.5275 
     54 N          33.2865   31.0225    1.7375 N.am      9 UNK        -0.4246 
     55 CA         34.4655   31.7757    2.1491 C.3       9 UNK         0.0261 
     56 CB         35.6820   30.8395    2.3414 C.3       9 UNK        -0.1959 
     57 C          34.0651   32.5587    3.4038 C.2       9 UNK         0.5033 
     58 O          33.4028   33.5907    3.2893 O.2       9 UNK        -0.5390 
     59 N          34.4294   32.0249    4.5714 N.am      10 UNK        -0.4215 
     60 CA         33.9697   32.4457    5.8911 C.3       10 UNK         0.0240 
     61 CB         34.9603   33.4565    6.5009 C.3       10 UNK        -0.1982 
     62 C          33.7956   31.1708    6.7268 C.2       10 UNK         0.4970 
     63 O          34.4209   31.0225    7.7777 O.2       10 UNK        -0.4916 
     64 N          33.0024   30.2372    6.1880 N.am      11 UNK        -0.4279 
     65 CA         32.8527   28.8626    6.6929 C.3       11 UNK         0.1003 
     66 C          31.9601   28.7219    7.9616 C.2       11 UNK         0.5709 
     67 N          31.3131   29.7759    8.4456 N.am      11 UNK        -0.7358 
     68 O          31.8688   27.6361    8.5289 O.2       11 UNK        -0.4999 
     69 C69        32.4000   27.8969    5.5658 C.3       12 UNK        -0.0954 
     70 S70        33.5286   27.8827    4.1339 S.3       12 UNK        -0.2268 
     71 C71        34.0400   26.1381    4.0804 C.3       12 UNK         0.0203 
     72 H72        30.8139   22.3714   -5.7371 H         1 UNK         0.0888 
     73 H73        30.9273   21.5813   -4.1637 H         1 UNK         0.0888 
     74 H74        29.5484   21.2556   -5.2160 H         1 UNK         0.0888 
     75 H75        30.4231   22.9776   -2.4895 H         1 UNK         0.3017 
     76 H76        29.1126   25.4816   -2.8810 H         1 UNK         0.0873 
     77 H77        29.3938   25.7922   -0.4452 H         1 UNK         0.0745 
     78 H78        29.7315   24.0997   -0.2269 H         1 UNK         0.0745 
     79 H79        32.0325   23.0177   -0.4940 H         1 UNK         0.0705 
     80 H80        33.4827   23.9831   -0.4655 H         1 UNK         0.0705 
     81 H81        33.9046   25.6107    1.4155 H         1 UNK         0.1334 
     82 H82        31.9507   24.7001    5.1267 H         1 UNK         0.1417 
     83 H83        30.6171   22.8571    1.4986 H         1 UNK         0.1562 
     84 H84        30.2860   22.9404    5.2184 H         1 UNK         0.0748 
     85 H85        30.1241   21.8956    3.8353 H         1 UNK         0.0748 
     86 H86        29.0826   24.9055    5.7116 H         1 UNK         0.0940 
     87 H87        27.3744   25.0511    5.4044 H         1 UNK         0.0940 
     88 H88        29.5667   26.2894    3.6722 H         1 UNK         0.0703 
     89 H89        26.6983   26.1403    3.2255 H         1 UNK         0.3081 
     90 H90        25.8295   28.2617    1.5740 H         1 UNK         0.0719 
     91 H91        27.3278   29.1726   -0.1231 H         1 UNK         0.0809 
     92 H92        27.6827   27.5756   -0.7546 H         1 UNK         0.0809 
     93 H93        26.0654   28.2571   -0.9277 H         1 UNK         0.0809 
     94 H94        25.8922   25.8776   -0.0442 H         1 UNK         0.2990 
     95 H95        24.0738   23.8167    2.0682 H         1 UNK         0.0690 
     96 H96        22.1799   25.4302    1.9988 H         1 UNK         0.0788 
     97 H97        21.9451   24.1485    0.8236 H         1 UNK         0.0788 
     98 H98        22.4791   25.7450    0.2953 H         1 UNK         0.0788 
     99 H99        24.0687   24.2400   -0.8267 H         1 UNK         0.2993 
    100 H100       25.9738   21.4576   -1.3653 H         1 UNK         0.0949 
    101 H101       25.1294   22.3802   -3.4930 H         1 UNK         0.0767 
    102 H102       23.8647   22.4437   -2.2818 H         1 UNK         0.0767 
    103 H103       24.7274   23.9127   -2.7361 H         1 UNK         0.0767 
    104 H104       27.9199   22.3317   -1.9859 H         1 UNK         0.3013 
    105 H105       28.9672   28.7523    3.5369 H         1 UNK         0.3121 
    106 H106       29.9573   29.8747    5.9639 H         1 UNK         0.0774 
    107 H107       28.1350   31.6145    6.2649 H         1 UNK         0.0815 
    108 H108       27.0906   30.6803    5.1996 H         1 UNK         0.0815 
    109 H109       27.6288   30.0012    6.7300 H         1 UNK         0.0815 
    110 H110       27.9651   30.9412    3.2200 H         1 UNK         0.2987 
    111 H111       29.5241   33.1426    2.4604 H         1 UNK         0.0949 
    112 H112       27.4265   31.5537    0.8800 H         1 UNK         0.0806 
    113 H113       27.1014   32.9037    1.9691 H         1 UNK         0.0806 
    114 H114       27.9869   33.1707    0.4789 H         1 UNK         0.0806 
    115 H115       30.0806   29.8098    1.6457 H         1 UNK         0.3010 
    116 H116       31.4611   29.9939   -0.7809 H         1 UNK         0.0829 
    117 H117       31.8781   28.1381    1.6267 H         1 UNK         0.0813 
    118 H118       30.8441   27.8470    0.2325 H         1 UNK         0.0813 
    119 H119       32.5888   27.8764    0.0411 H         1 UNK         0.0813 
    120 H120       32.5247   31.0072    2.4068 H         1 UNK         0.3038 
    121 H121       34.7058   32.5077    1.3752 H         1 UNK         0.0769 
    122 H122       35.4592   29.9992    2.9994 H         1 UNK         0.0811 
    123 H123       36.5336   31.3790    2.7582 H         1 UNK         0.0811 
    124 H124       36.0099   30.4239    1.3886 H         1 UNK         0.0811 
    125 H125       34.9576   31.1626    4.5526 H         1 UNK         0.3204 
    126 H126       32.9870   32.9163    5.8110 H         1 UNK         0.0748 
    127 H127       34.6332   33.7753    7.4914 H         1 UNK         0.0771 
    128 H128       35.9589   33.0305    6.6051 H         1 UNK         0.0771 
    129 H129       35.0413   34.3508    5.8828 H         1 UNK         0.0771 
    130 H130       32.4880   30.4635    5.3439 H         1 UNK         0.2980 
    131 H131       33.8433   28.5306    7.0099 H         1 UNK         0.0545 
    132 H132       30.7465   29.6674    9.2717 H         1 UNK         0.3459 
    133 H133       31.4075   30.6791    8.0119 H         1 UNK         0.3459 
    134 H134       31.4237   28.1859    5.1922 H         1 UNK         0.0616 
    135 H135       32.2893   26.8835    5.9523 H         1 UNK         0.0616 
    136 H136       35.0044   26.0804    3.5736 H         1 UNK         0.0634 
    137 H137       34.2132   25.7686    5.0922 H         1 UNK         0.0634 
@<TRIPOS>BOND
     1    1    2 1    
     2    1   72 1    
     3    1   73 1    
     4    1   74 1    
     5    2    3 2    
     6    2    4 am   BACKBONE|DICT|INTERRES
     7    4    5 1    
     8    4   75 1    
     9    5    6 1    
    10    5   35 1    
    11    5   76 1    
    12    6    7 1    
    13    6   77 1    
    14    6   78 1    
    15    7    8 1    
    16    8    9 1    
    17    8   79 1    
    18    8   80 1    
    19    9   10 ar   
    20    9   14 ar   
    21   10   11 ar   
    22   10   81 1    
    23   11   12 ar   
    24   11   71 1    
    25   12   13 ar   
    26   12   82 1    
    27   13   14 ar   
    28   13   15 1    
    29   14   83 1    
    30   15   16 1    
    31   15   84 1    
    32   15   85 1    
    33   16   17 1    
    34   17   18 1    
    35   17   86 1    
    36   17   87 1    
    37   18   19 1    
    38   18   37 1    
    39   18   88 1    
    40   19   20 am   BACKBONE|DICT|INTERRES
    41   19   89 1    
    42   20   21 2    
    43   20   22 1    
    44   22   23 1    
    45   22   24 1    
    46   22   90 1    
    47   23   91 1    
    48   23   92 1    
    49   23   93 1    
    50   24   25 am   BACKBONE|DICT|INTERRES
    51   24   94 1    
    52   25   26 2    
    53   25   27 1    
    54   27   28 1    
    55   27   29 1    
    56   27   95 1    
    57   28   96 1    
    58   28   97 1    
    59   28   98 1    
    60   29   30 am   BACKBONE|DICT|INTERRES
    61   29   99 1    
    62   30   31 2    
    63   30   32 1    
    64   32   33 1    
    65   32   34 1    
    66   32  100 1    
    67   33  101 1    
    68   33  102 1    
    69   33  103 1    
    70   34   35 am   BACKBONE|DICT|INTERRES
    71   34  104 1    
    72   35   36 2    
    73   37   38 2    
    74   37   39 am   BACKBONE|DICT|INTERRES
    75   39   40 1    
    76   39  105 1    
    77   40   41 1    
    78   40   42 1    
    79   40  106 1    
    80   41  107 1    
    81   41  108 1    
    82   41  109 1    
    83   42   43 2    
    84   42   44 am   BACKBONE|DICT|INTERRES
    85   44   45 1    
    86   44  110 1    
    87   45   46 1    
    88   45   47 1    
    89   45  111 1    
    90   46  112 1    
    91   46  113 1    
    92   46  114 1    
    93   47   48 2    
    94   47   49 am   BACKBONE|DICT|INTERRES
    95   49   50 1    
    96   49  115 1    
    97   50   51 1    
    98   50   52 1    
    99   50  116 1    
   100   51  117 1    
   101   51  118 1    
   102   51  119 1    
   103   52   53 2    
   104   52   54 am   BACKBONE|DICT|INTERRES
   105   54   55 1    
   106   54  120 1    
   107   55   56 1    
   108   55   57 1    
   109   55  121 1    
   110   56  122 1    
   111   56  123 1    
   112   56  124 1    
   113   57   58 2    
   114   57   59 am   BACKBONE|DICT|INTERRES
   115   59   60 1    
   116   59  125 1    
   117   60   61 1    
   118   60   62 1    
   119   60  126 1    
   120   61  127 1    
   121   61  128 1    
   122   61  129 1    
   123   62   63 2    
   124   62   64 am   BACKBONE|DICT|INTERRES
   125   64   65 1    
   126   64  130 1    
   127   65   66 1    
   128   65   69 1    
   129   65  131 1    
   130   66   67 am   BACKBONE|DICT|INTERRES
   131   66   68 2    
   132   67  132 1    
   133   67  133 1    
   134   69   70 1    
   135   69  134 1    
   136   69  135 1    
   137   70   71 1    
   138   71  136 1    
   139   71  137 1    
@<TRIPOS>SUBSTRUCTURE
     1 UNK         1 GROUP             0       ****    0 ROOT    
