@<TRIPOS>MOLECULE
3R136
137   139    1
SMALL
USER_CHARGES


@<TRIPOS>ATOM
      1 CA         26.8175   18.2099   -2.0298 C.3       0 UNK        -0.1979 
      2 C          27.5145   19.3582   -1.3150 C.2       0 UNK         0.4864 
      3 O          27.9325   19.1957   -0.1681 O.2       0 UNK        -0.5359 
      4 N          27.6373   20.5134   -1.9863 N.am      1 UNK        -0.4318 
      5 CA         28.2673   21.7462   -1.4889 C.3       1 UNK         0.0824 
      6 C6         29.7908   21.5739   -1.2267 C.3       12 UNK        -0.0944 
      7 S7         30.7469   23.0906   -1.5694 S.3       12 UNK        -0.2672 
      8 C8         32.2779   22.7636   -0.6395 C.3       12 UNK         0.0333 
      9 C9         32.3304   23.4926    0.6990 C.ar      12 UNK        -0.0807 
     10 C10        33.3091   24.4673    0.9259 C.ar      12 UNK        -0.0894 
     11 C11        33.4220   25.0824    2.1763 C.ar      12 UNK        -0.0804 
     12 C12        32.5426   24.7274    3.2014 C.ar      12 UNK        -0.0824 
     13 C13        31.5423   23.7798    2.9806 C.ar      12 UNK        -0.0762 
     14 C14        31.4433   23.1619    1.7298 C.ar      12 UNK        -0.0782 
     15 C15        30.5813   23.4093    4.0983 C.3       12 UNK         0.0230 
     16 S16        29.0246   24.3388    3.9709 S.3       12 UNK        -0.2608 
     17 C17        29.4607   25.9716    4.6772 C.3       12 UNK        -0.0989 
     18 CA         29.8850   27.0646    3.6508 C.3       5 UNK         0.0716 
     19 N          29.2101   26.9054    2.3617 N.am      5 UNK        -0.4135 
     20 C          29.3254   27.6837    1.2786 C.2       4 UNK         0.5031 
     21 O          30.0364   28.6846    1.2092 O.2       4 UNK        -0.5229 
     22 CA         28.4206   27.3194    0.0909 C.3       4 UNK         0.0329 
     23 CB         29.1104   26.2677   -0.7893 C.3       4 UNK        -0.2001 
     24 N          27.0896   26.8282    0.4709 N.am      4 UNK        -0.4303 
     25 C          26.2352   27.3672    1.3534 C.2       3 UNK         0.5044 
     26 O          26.4781   28.3873    2.0006 O.2       3 UNK        -0.5152 
     27 CA         24.9048   26.6302    1.6066 C.3       3 UNK         0.0319 
     28 CB         23.7780   27.2211    0.7375 C.3       3 UNK        -0.2001 
     29 N          24.9665   25.1613    1.4928 N.am      3 UNK        -0.4354 
     30 C          25.1937   24.4154    0.4021 C.2       2 UNK         0.4964 
     31 O          25.3751   24.8812   -0.7255 O.2       2 UNK        -0.5047 
     32 CA         25.2367   22.8925    0.6086 C.3       2 UNK         0.0288 
     33 CB         23.8354   22.2837    0.4377 C.3       2 UNK        -0.2113 
     34 N          26.1527   22.2596   -0.3421 N.am      2 UNK        -0.4145 
     35 C          27.4892   22.3763   -0.3066 C.2       1 UNK         0.5006 
     36 O          28.0891   22.9522    0.6027 O.2       1 UNK        -0.5103 
     37 C          29.6903   28.4642    4.2770 C.2       5 UNK         0.5055 
     38 O          30.6049   28.9616    4.9376 O.2       5 UNK        -0.5220 
     39 N          28.4985   29.0474    4.0776 N.am      6 UNK        -0.4450 
     40 CA         28.0942   30.3527    4.5997 C.3       6 UNK         0.0367 
     41 CB         26.7507   30.1960    5.3308 C.3       6 UNK        -0.1929 
     42 C          27.9730   31.4145    3.4941 C.2       6 UNK         0.5070 
     43 O          28.0569   32.6017    3.8075 O.2       6 UNK        -0.5237 
     44 N          27.7597   30.9958    2.2367 N.am      7 UNK        -0.4739 
     45 CA         27.6969   31.8857    1.0716 C.3       7 UNK         0.0276 
     46 CB         27.0134   31.1627   -0.0987 C.3       7 UNK        -0.1927 
     47 C          29.0798   32.4185    0.6543 C.2       7 UNK         0.5013 
     48 O          29.1645   33.5425    0.1559 O.2       7 UNK        -0.5193 
     49 N          30.1338   31.6203    0.8791 N.am      8 UNK        -0.4253 
     50 CA         31.5367   32.0349    0.7932 C.3       8 UNK         0.0242 
     51 CB         32.4107   30.7761    0.6452 C.3       8 UNK        -0.2000 
     52 C          31.9474   32.8644    2.0271 C.2       8 UNK         0.4948 
     53 O          31.1118   33.1720    2.8802 O.2       8 UNK        -0.5275 
     54 N          33.2410   33.1955    2.1374 N.am      9 UNK        -0.4246 
     55 CA         33.8383   33.9596    3.2429 C.3       9 UNK         0.0261 
     56 CB         35.2158   34.4828    2.7923 C.3       9 UNK        -0.1959 
     57 C          33.9078   33.1793    4.5784 C.2       9 UNK         0.5033 
     58 O          34.9781   33.0953    5.1840 O.2       9 UNK        -0.5390 
     59 N          32.7636   32.6230    5.0033 N.am      10 UNK        -0.4215 
     60 CA         32.5177   31.8341    6.2169 C.3       10 UNK         0.0240 
     61 CB         32.5355   32.7505    7.4586 C.3       10 UNK        -0.1982 
     62 C          33.4567   30.6191    6.3541 C.2       10 UNK         0.4970 
     63 O          33.9760   30.3633    7.4430 O.2       10 UNK        -0.4916 
     64 N          33.6805   29.9091    5.2402 N.am      11 UNK        -0.4279 
     65 CA         34.5904   28.7581    5.1682 C.3       11 UNK         0.1003 
     66 C          34.0707   27.4672    5.8685 C.2       11 UNK         0.5709 
     67 N          32.7814   27.3461    6.1654 N.am      11 UNK        -0.7358 
     68 O          34.8569   26.5695    6.1604 O.2       11 UNK        -0.4999 
     69 C69        35.0950   28.5191    3.7192 C.3       12 UNK        -0.0954 
     70 S70        33.8550   27.7856    2.5962 S.3       12 UNK        -0.2268 
     71 C71        34.5188   26.0967    2.4494 C.3       12 UNK         0.0203 
     72 H72        26.5013   18.4858   -3.0357 H         1 UNK         0.0888 
     73 H73        27.4888   17.3552   -2.1087 H         1 UNK         0.0888 
     74 H74        25.9354   17.9000   -1.4702 H         1 UNK         0.0888 
     75 H75        27.2731   20.5693   -2.9280 H         1 UNK         0.3017 
     76 H76        28.1530   22.4569   -2.3092 H         1 UNK         0.0873 
     77 H77        29.9778   21.2145   -0.2141 H         1 UNK         0.0745 
     78 H78        30.1969   20.8049   -1.8858 H         1 UNK         0.0745 
     79 H79        32.3976   21.6919   -0.4745 H         1 UNK         0.0705 
     80 H80        33.1197   23.0630   -1.2657 H         1 UNK         0.0705 
     81 H81        34.0019   24.7290    0.1376 H         1 UNK         0.1334 
     82 H82        32.6351   25.1980    4.1706 H         1 UNK         0.1417 
     83 H83        30.6730   22.4224    1.5639 H         1 UNK         0.1562 
     84 H84        31.0364   23.5723    5.0765 H         1 UNK         0.0748 
     85 H85        30.3556   22.3433    4.0440 H         1 UNK         0.0748 
     86 H86        28.5743   26.2889    5.2314 H         1 UNK         0.0940 
     87 H87        30.2398   25.8465    5.4307 H         1 UNK         0.0940 
     88 H88        30.9507   26.9567    3.4471 H         1 UNK         0.0703 
     89 H89        28.6144   26.0920    2.2948 H         1 UNK         0.3081 
     90 H90        28.2775   28.2173   -0.5084 H         1 UNK         0.0719 
     91 H91        29.2597   25.3327   -0.2476 H         1 UNK         0.0809 
     92 H92        28.5275   26.0472   -1.6837 H         1 UNK         0.0809 
     93 H93        30.0923   26.6119   -1.1176 H         1 UNK         0.0809 
     94 H94        26.7493   26.0163   -0.0357 H         1 UNK         0.2990 
     95 H95        24.6457   26.8276    2.6481 H         1 UNK         0.0690 
     96 H96        22.8184   26.7552    0.9615 H         1 UNK         0.0788 
     97 H97        23.9722   27.0952   -0.3280 H         1 UNK         0.0788 
     98 H98        23.6691   28.2912    0.9200 H         1 UNK         0.0788 
     99 H99        24.8512   24.6714    2.3699 H         1 UNK         0.2993 
    100 H100       25.5946   22.6817    1.6191 H         1 UNK         0.0949 
    101 H101       23.8481   21.2060    0.6028 H         1 UNK         0.0767 
    102 H102       23.1326   22.7116    1.1540 H         1 UNK         0.0767 
    103 H103       23.4347   22.4666   -0.5604 H         1 UNK         0.0767 
    104 H104       25.7338   21.7916   -1.1317 H         1 UNK         0.3013 
    105 H105       27.8209   28.5774    3.4853 H         1 UNK         0.3121 
    106 H106       28.8328   30.7165    5.3174 H         1 UNK         0.0774 
    107 H107       25.9667   29.8394    4.6611 H         1 UNK         0.0815 
    108 H108       26.4182   31.1484    5.7462 H         1 UNK         0.0815 
    109 H109       26.8308   29.4920    6.1592 H         1 UNK         0.0815 
    110 H110       27.5994   30.0087    2.0682 H         1 UNK         0.2987 
    111 H111       27.0809   32.7473    1.3389 H         1 UNK         0.0949 
    112 H112       27.6232   30.3443   -0.4758 H         1 UNK         0.0806 
    113 H113       26.0438   30.7574    0.1916 H         1 UNK         0.0806 
    114 H114       26.8444   31.8481   -0.9302 H         1 UNK         0.0806 
    115 H115       29.9665   30.6915    1.2541 H         1 UNK         0.3010 
    116 H116       31.6664   32.6605   -0.0923 H         1 UNK         0.0829 
    117 H117       32.0789   30.1605   -0.1913 H         1 UNK         0.0813 
    118 H118       33.4561   31.0238    0.4609 H         1 UNK         0.0813 
    119 H119       32.3713   30.1582    1.5429 H         1 UNK         0.0813 
    120 H120       33.8782   32.8876    1.4170 H         1 UNK         0.3038 
    121 H121       33.2048   34.8298    3.4280 H         1 UNK         0.0769 
    122 H122       35.9108   33.6667    2.5907 H         1 UNK         0.0811 
    123 H123       35.6666   35.1129    3.5604 H         1 UNK         0.0811 
    124 H124       35.1360   35.0885    1.8894 H         1 UNK         0.0811 
    125 H125       31.9583   32.7593    4.3903 H         1 UNK         0.3204 
    126 H126       31.5099   31.4272    6.1191 H         1 UNK         0.0748 
    127 H127       32.2497   32.2012    8.3566 H         1 UNK         0.0771 
    128 H128       33.5262   33.1717    7.6339 H         1 UNK         0.0771 
    129 H129       31.8340   33.5778    7.3502 H         1 UNK         0.0771 
    130 H130       33.1795   30.1406    4.3960 H         1 UNK         0.2980 
    131 H131       35.4760   29.0438    5.7396 H         1 UNK         0.0545 
    132 H132       32.4645   26.5249    6.6530 H         1 UNK         0.3459 
    133 H133       32.1217   28.0639    5.8854 H         1 UNK         0.3459 
    134 H134       35.4231   29.4640    3.2830 H         1 UNK         0.0616 
    135 H135       35.9878   27.8921    3.7383 H         1 UNK         0.0616 
    136 H136       35.2761   26.0789    1.6643 H         1 UNK         0.0634 
    137 H137       35.0253   25.8103    3.3722 H         1 UNK         0.0634 
@<TRIPOS>BOND
     1    1    2 1    
     2    1   72 1    
     3    1   73 1    
     4    1   74 1    
     5    2    3 2    
     6    2    4 am   BACKBONE|DICT|INTERRES
     7    4    5 1    
     8    4   75 1    
     9    5    6 1    
    10    5   35 1    
    11    5   76 1    
    12    6    7 1    
    13    6   77 1    
    14    6   78 1    
    15    7    8 1    
    16    8    9 1    
    17    8   79 1    
    18    8   80 1    
    19    9   10 ar   
    20    9   14 ar   
    21   10   11 ar   
    22   10   81 1    
    23   11   12 ar   
    24   11   71 1    
    25   12   13 ar   
    26   12   82 1    
    27   13   14 ar   
    28   13   15 1    
    29   14   83 1    
    30   15   16 1    
    31   15   84 1    
    32   15   85 1    
    33   16   17 1    
    34   17   18 1    
    35   17   86 1    
    36   17   87 1    
    37   18   19 1    
    38   18   37 1    
    39   18   88 1    
    40   19   20 am   BACKBONE|DICT|INTERRES
    41   19   89 1    
    42   20   21 2    
    43   20   22 1    
    44   22   23 1    
    45   22   24 1    
    46   22   90 1    
    47   23   91 1    
    48   23   92 1    
    49   23   93 1    
    50   24   25 am   BACKBONE|DICT|INTERRES
    51   24   94 1    
    52   25   26 2    
    53   25   27 1    
    54   27   28 1    
    55   27   29 1    
    56   27   95 1    
    57   28   96 1    
    58   28   97 1    
    59   28   98 1    
    60   29   30 am   BACKBONE|DICT|INTERRES
    61   29   99 1    
    62   30   31 2    
    63   30   32 1    
    64   32   33 1    
    65   32   34 1    
    66   32  100 1    
    67   33  101 1    
    68   33  102 1    
    69   33  103 1    
    70   34   35 am   BACKBONE|DICT|INTERRES
    71   34  104 1    
    72   35   36 2    
    73   37   38 2    
    74   37   39 am   BACKBONE|DICT|INTERRES
    75   39   40 1    
    76   39  105 1    
    77   40   41 1    
    78   40   42 1    
    79   40  106 1    
    80   41  107 1    
    81   41  108 1    
    82   41  109 1    
    83   42   43 2    
    84   42   44 am   BACKBONE|DICT|INTERRES
    85   44   45 1    
    86   44  110 1    
    87   45   46 1    
    88   45   47 1    
    89   45  111 1    
    90   46  112 1    
    91   46  113 1    
    92   46  114 1    
    93   47   48 2    
    94   47   49 am   BACKBONE|DICT|INTERRES
    95   49   50 1    
    96   49  115 1    
    97   50   51 1    
    98   50   52 1    
    99   50  116 1    
   100   51  117 1    
   101   51  118 1    
   102   51  119 1    
   103   52   53 2    
   104   52   54 am   BACKBONE|DICT|INTERRES
   105   54   55 1    
   106   54  120 1    
   107   55   56 1    
   108   55   57 1    
   109   55  121 1    
   110   56  122 1    
   111   56  123 1    
   112   56  124 1    
   113   57   58 2    
   114   57   59 am   BACKBONE|DICT|INTERRES
   115   59   60 1    
   116   59  125 1    
   117   60   61 1    
   118   60   62 1    
   119   60  126 1    
   120   61  127 1    
   121   61  128 1    
   122   61  129 1    
   123   62   63 2    
   124   62   64 am   BACKBONE|DICT|INTERRES
   125   64   65 1    
   126   64  130 1    
   127   65   66 1    
   128   65   69 1    
   129   65  131 1    
   130   66   67 am   BACKBONE|DICT|INTERRES
   131   66   68 2    
   132   67  132 1    
   133   67  133 1    
   134   69   70 1    
   135   69  134 1    
   136   69  135 1    
   137   70   71 1    
   138   71  136 1    
   139   71  137 1    
@<TRIPOS>SUBSTRUCTURE
     1 UNK         1 GROUP             0       ****    0 ROOT    
