@<TRIPOS>MOLECULE
3R136
137   139    1
SMALL
USER_CHARGES


@<TRIPOS>ATOM
      1 CA         29.2029   27.8191   -2.4680 C.3       0 UNK        -0.1979 
      2 C          29.2613   26.6189   -1.5363 C.2       0 UNK         0.4864 
      3 O          28.7906   26.7027   -0.4015 O.2       0 UNK        -0.5359 
      4 N          29.8322   25.4999   -2.0018 N.am      1 UNK        -0.4318 
      5 CA         29.9403   24.2275   -1.2767 C.3       1 UNK         0.0824 
      6 C6         31.2046   23.4518   -1.7382 C.3       12 UNK        -0.0944 
      7 S7         31.5709   21.9463   -0.7695 S.3       12 UNK        -0.2672 
      8 C8         32.8920   22.5011    0.3547 C.3       12 UNK         0.0333 
      9 C9         32.3842   23.3487    1.5162 C.ar      12 UNK        -0.0807 
     10 C10        33.0607   24.5193    1.8690 C.ar      12 UNK        -0.0894 
     11 C11        32.6555   25.2809    2.9700 C.ar      12 UNK        -0.0804 
     12 C12        31.5665   24.8441    3.7334 C.ar      12 UNK        -0.0824 
     13 C13        30.8733   23.6781    3.3901 C.ar      12 UNK        -0.0762 
     14 C14        31.2885   22.9358    2.2817 C.ar      12 UNK        -0.0782 
     15 C15        29.7079   23.1851    4.2387 C.3       12 UNK         0.0230 
     16 S16        28.0945   23.7466    3.6023 S.3       12 UNK        -0.2608 
     17 C17        28.0954   25.4953    4.1166 C.3       12 UNK        -0.0989 
     18 CA         27.8387   26.4475    2.9131 C.3       5 UNK         0.0716 
     19 N          26.4111   26.7175    2.6765 N.am      5 UNK        -0.4135 
     20 C          25.5597   27.3417    3.5120 C.2       4 UNK         0.5031 
     21 O          25.8430   27.6988    4.6558 O.2       4 UNK        -0.5229 
     22 CA         24.1372   27.6417    3.0052 C.3       4 UNK         0.0329 
     23 CB         24.0497   29.0910    2.4980 C.3       4 UNK        -0.2001 
     24 N          23.6721   26.7421    1.9527 N.am      4 UNK        -0.4303 
     25 C          23.3951   25.4407    2.1060 C.2       3 UNK         0.5044 
     26 O          23.4688   24.8391    3.1780 O.2       3 UNK        -0.5152 
     27 CA         22.9667   24.6777    0.8383 C.3       3 UNK         0.0319 
     28 CB         22.2400   25.5679   -0.1955 C.3       3 UNK        -0.2001 
     29 N          24.0756   23.9652    0.1922 N.am      3 UNK        -0.4354 
     30 C          25.2651   24.4636   -0.1767 C.2       2 UNK         0.4964 
     31 O          25.6512   25.6126    0.0602 O.2       2 UNK        -0.5047 
     32 CA         26.1541   23.5275   -0.9998 C.3       2 UNK         0.0288 
     33 CB         25.6415   23.4619   -2.4550 C.3       2 UNK        -0.2113 
     34 N          27.5195   24.0403   -0.9556 N.am      2 UNK        -0.4145 
     35 C          28.6174   23.4371   -1.4215 C.2       1 UNK         0.5006 
     36 O          28.5978   22.3375   -1.9789 O.2       1 UNK        -0.5103 
     37 C          28.6091   27.7800    3.0281 C.2       5 UNK         0.5055 
     38 O          28.8147   28.2803    4.1357 O.2       5 UNK        -0.5220 
     39 N          28.9748   28.3515    1.8740 N.am      6 UNK        -0.4450 
     40 CA         29.5445   29.6959    1.7649 C.3       6 UNK         0.0367 
     41 CB         28.4089   30.7052    1.5050 C.3       6 UNK        -0.1929 
     42 C          30.6651   29.7829    0.7155 C.2       6 UNK         0.5070 
     43 O          30.8652   30.8468    0.1274 O.2       6 UNK        -0.5237 
     44 N          31.3901   28.6773    0.4855 N.am      7 UNK        -0.4739 
     45 CA         32.5093   28.6127   -0.4668 C.3       7 UNK         0.0276 
     46 CB         32.9437   27.1530   -0.6618 C.3       7 UNK        -0.1927 
     47 C          33.7233   29.4587   -0.0419 C.2       7 UNK         0.5013 
     48 O          34.4384   29.9683   -0.9047 O.2       7 UNK        -0.5193 
     49 N          33.9225   29.5921    1.2742 N.am      8 UNK        -0.4253 
     50 CA         34.9707   30.3875    1.9074 C.3       8 UNK         0.0242 
     51 CB         35.9185   29.4535    2.6838 C.3       8 UNK        -0.2000 
     52 C          34.3126   31.4494    2.7994 C.2       8 UNK         0.4948 
     53 O          34.6072   31.5231    3.9950 O.2       8 UNK        -0.5275 
     54 N          33.4051   32.2342    2.1983 N.am      9 UNK        -0.4246 
     55 CA         32.6106   33.3072    2.8049 C.3       9 UNK         0.0261 
     56 CB         33.5056   34.5052    3.1966 C.3       9 UNK        -0.1959 
     57 C          31.7341   32.7870    3.9575 C.2       9 UNK         0.5033 
     58 O          30.6410   32.2863    3.6992 O.2       9 UNK        -0.5390 
     59 N          32.2234   32.9079    5.1969 N.am      10 UNK        -0.4215 
     60 CA         31.5702   32.3903    6.3988 C.3       10 UNK         0.0240 
     61 CB         32.0560   33.1962    7.6155 C.3       10 UNK        -0.1982 
     62 C          31.8099   30.8855    6.6232 C.2       10 UNK         0.4970 
     63 O          31.0377   30.2767    7.3646 O.2       10 UNK        -0.4916 
     64 N          32.8763   30.3242    6.0291 N.am      11 UNK        -0.4279 
     65 CA         33.3351   28.9330    6.2146 C.3       11 UNK         0.1003 
     66 C          33.7647   28.5775    7.6738 C.2       11 UNK         0.5709 
     67 N          34.0966   29.5480    8.5177 N.am      11 UNK        -0.7358 
     68 O          33.8404   27.4077    8.0429 O.2       11 UNK        -0.4999 
     69 C69        32.3705   27.8864    5.5793 C.3       12 UNK        -0.0954 
     70 S70        32.3909   27.9696    3.7577 S.3       12 UNK        -0.2268 
     71 C71        33.4427   26.5352    3.3459 C.3       12 UNK         0.0203 
     72 H72        29.6364   28.6937   -1.9850 H         1 UNK         0.0888 
     73 H73        29.7454   27.6416   -3.3963 H         1 UNK         0.0888 
     74 H74        28.1667   28.0473   -2.7159 H         1 UNK         0.0888 
     75 H75        30.1698   25.4828   -2.9538 H         1 UNK         0.3017 
     76 H76        30.0643   24.4443   -0.2127 H         1 UNK         0.0873 
     77 H77        31.1090   23.1617   -2.7861 H         1 UNK         0.0745 
     78 H78        32.0751   24.1079   -1.6943 H         1 UNK         0.0745 
     79 H79        33.6519   23.0325   -0.2204 H         1 UNK         0.0705 
     80 H80        33.3840   21.6196    0.7674 H         1 UNK         0.0705 
     81 H81        33.9273   24.8219    1.2979 H         1 UNK         0.1334 
     82 H82        31.2674   25.4072    4.6048 H         1 UNK         0.1417 
     83 H83        30.7686   22.0223    2.0262 H         1 UNK         0.1562 
     84 H84        29.8261   23.5032    5.2758 H         1 UNK         0.0748 
     85 H85        29.7099   22.0942    4.2611 H         1 UNK         0.0748 
     86 H86        27.3531   25.6240    4.9043 H         1 UNK         0.0940 
     87 H87        29.0461   25.7164    4.5996 H         1 UNK         0.0940 
     88 H88        28.2113   25.9575    2.0128 H         1 UNK         0.0703 
     89 H89        26.0705   26.4569    1.7545 H         1 UNK         0.3081 
     90 H90        23.4593   27.5361    3.8550 H         1 UNK         0.0719 
     91 H91        24.3583   29.7947    3.2727 H         1 UNK         0.0809 
     92 H92        24.6948   29.2561    1.6339 H         1 UNK         0.0809 
     93 H93        23.0304   29.3526    2.2135 H         1 UNK         0.0809 
     94 H94        23.6215   27.1241    1.0193 H         1 UNK         0.2990 
     95 H95        22.2576   23.9163    1.1672 H         1 UNK         0.0690 
     96 H96        21.8012   24.9620   -0.9884 H         1 UNK         0.0788 
     97 H97        22.9086   26.2873   -0.6695 H         1 UNK         0.0788 
     98 H98        21.4243   26.1254    0.2673 H         1 UNK         0.0788 
     99 H99        23.8851   22.9976   -0.0292 H         1 UNK         0.2993 
    100 H100       26.1373   22.5333   -0.5485 H         1 UNK         0.0949 
    101 H101       24.6017   23.1350   -2.4947 H         1 UNK         0.0767 
    102 H102       25.6950   24.4369   -2.9414 H         1 UNK         0.0767 
    103 H103       26.2152   22.7575   -3.0566 H         1 UNK         0.0767 
    104 H104       27.6053   24.9647   -0.5389 H         1 UNK         0.3013 
    105 H105       28.8156   27.8479    0.9994 H         1 UNK         0.3121 
    106 H106       30.0227   29.9597    2.7098 H         1 UNK         0.0774 
    107 H107       28.7886   31.7277    1.4887 H         1 UNK         0.0815 
    108 H108       27.9181   30.5186    0.5493 H         1 UNK         0.0815 
    109 H109       27.6521   30.6594    2.2881 H         1 UNK         0.0815 
    110 H110       31.1773   27.8413    1.0121 H         1 UNK         0.2987 
    111 H111       32.1547   28.9977   -1.4254 H         1 UNK         0.0949 
    112 H112       33.6419   27.0649   -1.4952 H         1 UNK         0.0806 
    113 H113       33.4499   26.7707    0.2214 H         1 UNK         0.0806 
    114 H114       32.1022   26.4982   -0.8724 H         1 UNK         0.0806 
    115 H115       33.2560   29.1594    1.9015 H         1 UNK         0.3010 
    116 H116       35.5581   30.9219    1.1577 H         1 UNK         0.0829 
    117 H117       36.3741   28.7153    2.0238 H         1 UNK         0.0813 
    118 H118       36.7286   30.0178    3.1475 H         1 UNK         0.0813 
    119 H119       35.3991   28.9171    3.4776 H         1 UNK         0.0813 
    120 H120       33.1928   32.0408    1.2285 H         1 UNK         0.3038 
    121 H121       31.9225   33.6543    2.0321 H         1 UNK         0.0769 
    122 H122       32.9176   35.2989    3.6597 H         1 UNK         0.0811 
    123 H123       33.9837   34.9354    2.3165 H         1 UNK         0.0811 
    124 H124       34.2973   34.2305    3.8941 H         1 UNK         0.0811 
    125 H125       33.1503   33.2952    5.3050 H         1 UNK         0.3204 
    126 H126       30.4919   32.5376    6.3046 H         1 UNK         0.0748 
    127 H127       31.5712   32.8531    8.5308 H         1 UNK         0.0771 
    128 H128       33.1327   33.1018    7.7614 H         1 UNK         0.0771 
    129 H129       31.8236   34.2559    7.5068 H         1 UNK         0.0771 
    130 H130       33.4579   30.8907    5.4181 H         1 UNK         0.2980 
    131 H131       34.2740   28.8737    5.6640 H         1 UNK         0.0545 
    132 H132       34.0622   30.5118    8.2290 H         1 UNK         0.3459 
    133 H133       34.3854   29.3095    9.4533 H         1 UNK         0.3459 
    134 H134       31.3464   28.0375    5.9225 H         1 UNK         0.0616 
    135 H135       32.6320   26.8706    5.8773 H         1 UNK         0.0616 
    136 H136       34.1114   26.3055    4.1762 H         1 UNK         0.0634 
    137 H137       34.0901   26.8316    2.5202 H         1 UNK         0.0634 
@<TRIPOS>BOND
     1    1    2 1    
     2    1   72 1    
     3    1   73 1    
     4    1   74 1    
     5    2    3 2    
     6    2    4 am   BACKBONE|DICT|INTERRES
     7    4    5 1    
     8    4   75 1    
     9    5    6 1    
    10    5   35 1    
    11    5   76 1    
    12    6    7 1    
    13    6   77 1    
    14    6   78 1    
    15    7    8 1    
    16    8    9 1    
    17    8   79 1    
    18    8   80 1    
    19    9   10 ar   
    20    9   14 ar   
    21   10   11 ar   
    22   10   81 1    
    23   11   12 ar   
    24   11   71 1    
    25   12   13 ar   
    26   12   82 1    
    27   13   14 ar   
    28   13   15 1    
    29   14   83 1    
    30   15   16 1    
    31   15   84 1    
    32   15   85 1    
    33   16   17 1    
    34   17   18 1    
    35   17   86 1    
    36   17   87 1    
    37   18   19 1    
    38   18   37 1    
    39   18   88 1    
    40   19   20 am   BACKBONE|DICT|INTERRES
    41   19   89 1    
    42   20   21 2    
    43   20   22 1    
    44   22   23 1    
    45   22   24 1    
    46   22   90 1    
    47   23   91 1    
    48   23   92 1    
    49   23   93 1    
    50   24   25 am   BACKBONE|DICT|INTERRES
    51   24   94 1    
    52   25   26 2    
    53   25   27 1    
    54   27   28 1    
    55   27   29 1    
    56   27   95 1    
    57   28   96 1    
    58   28   97 1    
    59   28   98 1    
    60   29   30 am   BACKBONE|DICT|INTERRES
    61   29   99 1    
    62   30   31 2    
    63   30   32 1    
    64   32   33 1    
    65   32   34 1    
    66   32  100 1    
    67   33  101 1    
    68   33  102 1    
    69   33  103 1    
    70   34   35 am   BACKBONE|DICT|INTERRES
    71   34  104 1    
    72   35   36 2    
    73   37   38 2    
    74   37   39 am   BACKBONE|DICT|INTERRES
    75   39   40 1    
    76   39  105 1    
    77   40   41 1    
    78   40   42 1    
    79   40  106 1    
    80   41  107 1    
    81   41  108 1    
    82   41  109 1    
    83   42   43 2    
    84   42   44 am   BACKBONE|DICT|INTERRES
    85   44   45 1    
    86   44  110 1    
    87   45   46 1    
    88   45   47 1    
    89   45  111 1    
    90   46  112 1    
    91   46  113 1    
    92   46  114 1    
    93   47   48 2    
    94   47   49 am   BACKBONE|DICT|INTERRES
    95   49   50 1    
    96   49  115 1    
    97   50   51 1    
    98   50   52 1    
    99   50  116 1    
   100   51  117 1    
   101   51  118 1    
   102   51  119 1    
   103   52   53 2    
   104   52   54 am   BACKBONE|DICT|INTERRES
   105   54   55 1    
   106   54  120 1    
   107   55   56 1    
   108   55   57 1    
   109   55  121 1    
   110   56  122 1    
   111   56  123 1    
   112   56  124 1    
   113   57   58 2    
   114   57   59 am   BACKBONE|DICT|INTERRES
   115   59   60 1    
   116   59  125 1    
   117   60   61 1    
   118   60   62 1    
   119   60  126 1    
   120   61  127 1    
   121   61  128 1    
   122   61  129 1    
   123   62   63 2    
   124   62   64 am   BACKBONE|DICT|INTERRES
   125   64   65 1    
   126   64  130 1    
   127   65   66 1    
   128   65   69 1    
   129   65  131 1    
   130   66   67 am   BACKBONE|DICT|INTERRES
   131   66   68 2    
   132   67  132 1    
   133   67  133 1    
   134   69   70 1    
   135   69  134 1    
   136   69  135 1    
   137   70   71 1    
   138   71  136 1    
   139   71  137 1    
@<TRIPOS>SUBSTRUCTURE
     1 UNK         1 GROUP             0       ****    0 ROOT    
