@<TRIPOS>MOLECULE
3R136
137   139    1
SMALL
USER_CHARGES


@<TRIPOS>ATOM
      1 CA         32.1566   21.3274    5.1526 C.3       0 UNK        -0.1979 
      2 C          30.7315   21.5705    4.6767 C.2       0 UNK         0.4864 
      3 O          29.7848   21.1138    5.3192 O.2       0 UNK        -0.5359 
      4 N          30.5746   22.2742    3.5496 N.am      1 UNK        -0.4318 
      5 CA         29.2820   22.6351    2.9656 C.3       1 UNK         0.0824 
      6 C6         29.4201   23.0205    1.4776 C.3       12 UNK        -0.0944 
      7 S7         29.9050   21.6501    0.3751 S.3       12 UNK        -0.2672 
      8 C8         31.7288   21.5881    0.4958 C.3       12 UNK         0.0333 
      9 C9         32.4381   22.9388    0.4146 C.ar      12 UNK        -0.0807 
     10 C10        33.5251   23.1893    1.2571 C.ar      12 UNK        -0.0894 
     11 C11        34.2139   24.4031    1.1919 C.ar      12 UNK        -0.0804 
     12 C12        33.8036   25.3790    0.2789 C.ar      12 UNK        -0.0824 
     13 C13        32.7142   25.1486   -0.5681 C.ar      12 UNK        -0.0762 
     14 C14        32.0492   23.9187   -0.5074 C.ar      12 UNK        -0.0782 
     15 C15        32.2811   26.1996   -1.5841 C.3       12 UNK         0.0230 
     16 S16        31.9868   27.8413   -0.8431 S.3       12 UNK        -0.2608 
     17 C17        31.3188   28.7348   -2.2957 C.3       12 UNK        -0.0989 
     18 CA         29.8664   29.2662   -2.1311 C.3       5 UNK         0.0716 
     19 N          28.9731   28.3132   -1.4840 N.am      5 UNK        -0.4135 
     20 C          28.3379   27.2990   -2.0729 C.2       4 UNK         0.5031 
     21 O          28.4204   27.0543   -3.2777 O.2       4 UNK        -0.5229 
     22 CA         27.4798   26.3839   -1.1776 C.3       4 UNK         0.0329 
     23 CB         28.0362   24.9523   -1.1919 C.3       4 UNK        -0.2001 
     24 N          27.3578   26.8427    0.2148 N.am      4 UNK        -0.4303 
     25 C          26.5215   27.8092    0.6209 C.2       3 UNK         0.5044 
     26 O          25.7815   28.4217   -0.1511 O.2       3 UNK        -0.5152 
     27 CA         26.5224   28.1670    2.1247 C.3       3 UNK         0.0319 
     28 CB         25.2264   28.8826    2.5591 C.3       3 UNK        -0.2001 
     29 N          26.8040   27.0545    3.0447 N.am      3 UNK        -0.4354 
     30 C          26.1619   25.8828    3.1423 C.2       2 UNK         0.4964 
     31 O          25.2937   25.4955    2.3582 O.2       2 UNK        -0.5047 
     32 CA         26.5644   24.9822    4.3202 C.3       2 UNK         0.0288 
     33 CB         25.3296   24.4616    5.0777 C.3       2 UNK        -0.2113 
     34 N          27.3312   23.8485    3.8119 N.am      2 UNK        -0.4145 
     35 C          28.6661   23.8260    3.7217 C.2       1 UNK         0.5006 
     36 O          29.3996   24.7264    4.1366 O.2       1 UNK        -0.5103 
     37 C          29.7840   30.5918   -1.3591 C.2       5 UNK         0.5055 
     38 O          29.3100   30.6118   -0.2178 O.2       5 UNK        -0.5220 
     39 N          30.2262   31.6799   -2.0053 N.am      6 UNK        -0.4450 
     40 CA         30.1745   33.0614   -1.5146 C.3       6 UNK         0.0367 
     41 CB         30.3274   34.0195   -2.7113 C.3       6 UNK        -0.1929 
     42 C          31.1991   33.3446   -0.3969 C.2       6 UNK         0.5070 
     43 O          32.0686   34.2044   -0.5480 O.2       6 UNK        -0.5237 
     44 N          31.0686   32.6104    0.7090 N.am      7 UNK        -0.4739 
     45 CA         31.8712   32.7186    1.9242 C.3       7 UNK         0.0276 
     46 CB         32.9295   31.5988    1.9325 C.3       7 UNK        -0.1927 
     47 C          30.9420   32.6930    3.1482 C.2       7 UNK         0.5013 
     48 O          31.2261   31.9992    4.1266 O.2       7 UNK        -0.5193 
     49 N          29.8230   33.4296    3.0541 N.am      8 UNK        -0.4253 
     50 CA         28.7251   33.5073    4.0248 C.3       8 UNK         0.0242 
     51 CB         29.1792   34.2338    5.3127 C.3       8 UNK        -0.2000 
     52 C          28.1056   32.1176    4.2637 C.2       8 UNK         0.4948 
     53 O          27.4474   31.5951    3.3643 O.2       8 UNK        -0.5275 
     54 N          28.3497   31.5335    5.4438 N.am      9 UNK        -0.4246 
     55 CA         27.9501   30.1705    5.8011 C.3       9 UNK         0.0261 
     56 CB         27.9962   30.0226    7.3309 C.3       9 UNK        -0.1959 
     57 C          28.8039   29.0760    5.1304 C.2       9 UNK         0.5033 
     58 O          28.4042   27.9126    5.1778 O.2       9 UNK        -0.5390 
     59 N          29.9425   29.4477    4.5268 N.am      10 UNK        -0.4215 
     60 CA         30.9590   28.5736    3.9351 C.3       10 UNK         0.0240 
     61 CB         30.4107   27.8014    2.7123 C.3       10 UNK        -0.1982 
     62 C          31.6636   27.7048    4.9966 C.2       10 UNK         0.4970 
     63 O          31.7641   28.1227    6.1534 O.2       10 UNK        -0.4916 
     64 N          32.2157   26.5622    4.5765 N.am      11 UNK        -0.4279 
     65 CA         33.0871   25.7107    5.4014 C.3       11 UNK         0.1003 
     66 C          32.3627   24.8873    6.5033 C.2       11 UNK         0.5709 
     67 N          31.0513   24.7010    6.4492 N.am      11 UNK        -0.7358 
     68 O          33.0088   24.4153    7.4356 O.2       11 UNK        -0.4999 
     69 C69        33.9961   24.8141    4.5240 C.3       12 UNK        -0.0954 
     70 S70        35.0698   25.8090    3.4331 S.3       12 UNK        -0.2268 
     71 C71        35.4245   24.6452    2.0821 C.3       12 UNK         0.0203 
     72 H72        32.3464   20.2576    5.2344 H         1 UNK         0.0888 
     73 H73        32.3055   21.7749    6.1349 H         1 UNK         0.0888 
     74 H74        32.8942   21.7492    4.4709 H         1 UNK         0.0888 
     75 H75        31.3793   22.6597    3.0801 H         1 UNK         0.3017 
     76 H76        28.6091   21.7784    3.0483 H         1 UNK         0.0873 
     77 H77        30.0932   23.8699    1.3573 H         1 UNK         0.0745 
     78 H78        28.4521   23.3593    1.1092 H         1 UNK         0.0745 
     79 H79        31.9880   21.0756    1.4232 H         1 UNK         0.0705 
     80 H80        32.1033   20.9550   -0.3095 H         1 UNK         0.0705 
     81 H81        33.8509   22.4302    1.9553 H         1 UNK         0.1334 
     82 H82        34.3365   26.3187    0.2247 H         1 UNK         0.1417 
     83 H83        31.2226   23.7208   -1.1760 H         1 UNK         0.1562 
     84 H84        31.3692   25.8806   -2.0920 H         1 UNK         0.0748 
     85 H85        33.0516   26.2863   -2.3514 H         1 UNK         0.0748 
     86 H86        31.3419   28.0685   -3.1593 H         1 UNK         0.0940 
     87 H87        32.0094   29.5409   -2.5499 H         1 UNK         0.0940 
     88 H88        29.4661   29.4761   -3.1257 H         1 UNK         0.0703 
     89 H89        28.8174   28.5022   -0.5033 H         1 UNK         0.3081 
     90 H90        26.4824   26.3558   -1.6217 H         1 UNK         0.0719 
     91 H91        29.0209   24.9003   -0.7277 H         1 UNK         0.0809 
     92 H92        27.3662   24.2679   -0.6727 H         1 UNK         0.0809 
     93 H93        28.1393   24.5781   -2.2115 H         1 UNK         0.0809 
     94 H94        27.9326   26.3825    0.9049 H         1 UNK         0.2990 
     95 H95        27.3414   28.8760    2.2561 H         1 UNK         0.0690 
     96 H96        25.2667   29.1699    3.6097 H         1 UNK         0.0788 
     97 H97        24.3495   28.2504    2.4150 H         1 UNK         0.0788 
     98 H98        25.0712   29.7975    1.9858 H         1 UNK         0.0788 
     99 H99        27.4988   27.2614    3.7642 H         1 UNK         0.2993 
    100 H100       27.1668   25.5578    5.0269 H         1 UNK         0.0949 
    101 H101       24.7294   25.2900    5.4565 H         1 UNK         0.0767 
    102 H102       24.6843   23.8548    4.4411 H         1 UNK         0.0767 
    103 H103       25.6206   23.8537    5.9346 H         1 UNK         0.0767 
    104 H104       26.7950   23.0988    3.3987 H         1 UNK         0.3013 
    105 H105       30.6225   31.5596   -2.9266 H         1 UNK         0.3121 
    106 H106       29.1847   33.2307   -1.0847 H         1 UNK         0.0774 
    107 H107       29.5477   33.8549   -3.4552 H         1 UNK         0.0815 
    108 H108       31.2934   33.9010   -3.2038 H         1 UNK         0.0815 
    109 H109       30.2503   35.0597   -2.3917 H         1 UNK         0.0815 
    110 H110       30.3398   31.8982    0.7097 H         1 UNK         0.2987 
    111 H111       32.3873   33.6808    1.9525 H         1 UNK         0.0949 
    112 H112       32.4715   30.6141    1.8404 H         1 UNK         0.0806 
    113 H113       33.6280   31.7151    1.1037 H         1 UNK         0.0806 
    114 H114       33.5159   31.6106    2.8522 H         1 UNK         0.0806 
    115 H115       29.6725   33.9283    2.1883 H         1 UNK         0.3010 
    116 H116       27.9425   34.1130    3.5651 H         1 UNK         0.0829 
    117 H117       29.5058   35.2494    5.0888 H         1 UNK         0.0813 
    118 H118       28.3598   34.3156    6.0284 H         1 UNK         0.0813 
    119 H119       30.0079   33.7297    5.8108 H         1 UNK         0.0813 
    120 H120       28.9208   32.0308    6.1122 H         1 UNK         0.3038 
    121 H121       26.9190   30.0185    5.4750 H         1 UNK         0.0769 
    122 H122       29.0065   30.1588    7.7189 H         1 UNK         0.0811 
    123 H123       27.6625   29.0299    7.6368 H         1 UNK         0.0811 
    124 H124       27.3447   30.7463    7.8212 H         1 UNK         0.0811 
    125 H125       30.2085   30.4288    4.5638 H         1 UNK         0.3204 
    126 H126       31.7329   29.2461    3.5669 H         1 UNK         0.0748 
    127 H127       29.9228   28.4785    2.0108 H         1 UNK         0.0771 
    128 H128       31.2091   27.3036    2.1610 H         1 UNK         0.0771 
    129 H129       29.6869   27.0413    3.0007 H         1 UNK         0.0771 
    130 H130       32.0817   26.2711    3.6204 H         1 UNK         0.2980 
    131 H131       33.7512   26.3824    5.9494 H         1 UNK         0.0545 
    132 H132       30.5991   24.1795    7.1815 H         1 UNK         0.3459 
    133 H133       30.5119   25.0127    5.6461 H         1 UNK         0.3459 
    134 H134       34.6411   24.1864    5.1416 H         1 UNK         0.0616 
    135 H135       33.3851   24.1391    3.9249 H         1 UNK         0.0616 
    136 H136       35.7958   23.7091    2.5024 H         1 UNK         0.0634 
    137 H137       36.2370   25.0504    1.4773 H         1 UNK         0.0634 
@<TRIPOS>BOND
     1    1    2 1    
     2    1   72 1    
     3    1   73 1    
     4    1   74 1    
     5    2    3 2    
     6    2    4 am   BACKBONE|DICT|INTERRES
     7    4    5 1    
     8    4   75 1    
     9    5    6 1    
    10    5   35 1    
    11    5   76 1    
    12    6    7 1    
    13    6   77 1    
    14    6   78 1    
    15    7    8 1    
    16    8    9 1    
    17    8   79 1    
    18    8   80 1    
    19    9   10 ar   
    20    9   14 ar   
    21   10   11 ar   
    22   10   81 1    
    23   11   12 ar   
    24   11   71 1    
    25   12   13 ar   
    26   12   82 1    
    27   13   14 ar   
    28   13   15 1    
    29   14   83 1    
    30   15   16 1    
    31   15   84 1    
    32   15   85 1    
    33   16   17 1    
    34   17   18 1    
    35   17   86 1    
    36   17   87 1    
    37   18   19 1    
    38   18   37 1    
    39   18   88 1    
    40   19   20 am   BACKBONE|DICT|INTERRES
    41   19   89 1    
    42   20   21 2    
    43   20   22 1    
    44   22   23 1    
    45   22   24 1    
    46   22   90 1    
    47   23   91 1    
    48   23   92 1    
    49   23   93 1    
    50   24   25 am   BACKBONE|DICT|INTERRES
    51   24   94 1    
    52   25   26 2    
    53   25   27 1    
    54   27   28 1    
    55   27   29 1    
    56   27   95 1    
    57   28   96 1    
    58   28   97 1    
    59   28   98 1    
    60   29   30 am   BACKBONE|DICT|INTERRES
    61   29   99 1    
    62   30   31 2    
    63   30   32 1    
    64   32   33 1    
    65   32   34 1    
    66   32  100 1    
    67   33  101 1    
    68   33  102 1    
    69   33  103 1    
    70   34   35 am   BACKBONE|DICT|INTERRES
    71   34  104 1    
    72   35   36 2    
    73   37   38 2    
    74   37   39 am   BACKBONE|DICT|INTERRES
    75   39   40 1    
    76   39  105 1    
    77   40   41 1    
    78   40   42 1    
    79   40  106 1    
    80   41  107 1    
    81   41  108 1    
    82   41  109 1    
    83   42   43 2    
    84   42   44 am   BACKBONE|DICT|INTERRES
    85   44   45 1    
    86   44  110 1    
    87   45   46 1    
    88   45   47 1    
    89   45  111 1    
    90   46  112 1    
    91   46  113 1    
    92   46  114 1    
    93   47   48 2    
    94   47   49 am   BACKBONE|DICT|INTERRES
    95   49   50 1    
    96   49  115 1    
    97   50   51 1    
    98   50   52 1    
    99   50  116 1    
   100   51  117 1    
   101   51  118 1    
   102   51  119 1    
   103   52   53 2    
   104   52   54 am   BACKBONE|DICT|INTERRES
   105   54   55 1    
   106   54  120 1    
   107   55   56 1    
   108   55   57 1    
   109   55  121 1    
   110   56  122 1    
   111   56  123 1    
   112   56  124 1    
   113   57   58 2    
   114   57   59 am   BACKBONE|DICT|INTERRES
   115   59   60 1    
   116   59  125 1    
   117   60   61 1    
   118   60   62 1    
   119   60  126 1    
   120   61  127 1    
   121   61  128 1    
   122   61  129 1    
   123   62   63 2    
   124   62   64 am   BACKBONE|DICT|INTERRES
   125   64   65 1    
   126   64  130 1    
   127   65   66 1    
   128   65   69 1    
   129   65  131 1    
   130   66   67 am   BACKBONE|DICT|INTERRES
   131   66   68 2    
   132   67  132 1    
   133   67  133 1    
   134   69   70 1    
   135   69  134 1    
   136   69  135 1    
   137   70   71 1    
   138   71  136 1    
   139   71  137 1    
@<TRIPOS>SUBSTRUCTURE
     1 UNK         1 GROUP             0       ****    0 ROOT    
