@<TRIPOS>MOLECULE
3R136
137   139    1
SMALL
USER_CHARGES


@<TRIPOS>ATOM
      1 CA         33.8986   27.1612   -2.9484 C.3       0 UNK        -0.1979 
      2 C          32.5032   26.9965   -2.3644 C.2       0 UNK         0.4864 
      3 O          31.6438   27.8480   -2.5919 O.2       0 UNK        -0.5359 
      4 N          32.2786   25.9102   -1.6117 N.am      1 UNK        -0.4318 
      5 CA         31.0076   25.5890   -0.9545 C.3       1 UNK         0.0824 
      6 C6         31.1649   24.4005    0.0332 C.3       12 UNK        -0.0944 
      7 S7         30.1805   24.6583    1.5440 S.3       12 UNK        -0.2672 
      8 C8         31.4966   25.0466    2.7359 C.3       12 UNK         0.0333 
      9 C9         30.9742   25.8746    3.8971 C.ar      12 UNK        -0.0807 
     10 C10        31.1626   27.2594    3.9093 C.ar      12 UNK        -0.0894 
     11 C11        30.7190   28.0272    4.9895 C.ar      12 UNK        -0.0804 
     12 C12        30.0556   27.4039    6.0500 C.ar      12 UNK        -0.0824 
     13 C13        29.8379   26.0224    6.0354 C.ar      12 UNK        -0.0762 
     14 C14        30.3135   25.2599    4.9641 C.ar      12 UNK        -0.0782 
     15 C15        29.0643   25.3566    7.1634 C.3       12 UNK         0.0230 
     16 S16        27.3911   24.8651    6.6319 S.3       12 UNK        -0.2608 
     17 C17        26.6629   26.4673    6.1397 C.3       12 UNK        -0.0989 
     18 CA         26.6876   26.6875    4.6017 C.3       5 UNK         0.0716 
     19 N          25.9490   25.6329    3.8976 N.am      5 UNK        -0.4135 
     20 C          26.1221   25.2821    2.6184 C.2       4 UNK         0.5031 
     21 O          26.9405   25.8278    1.8759 O.2       4 UNK        -0.5229 
     22 CA         25.2480   24.1405    2.0610 C.3       4 UNK         0.0329 
     23 CB         24.0622   23.7347    2.9677 C.3       4 UNK        -0.2001 
     24 N          24.7990   24.4439    0.6974 N.am      4 UNK        -0.4303 
     25 C          24.0147   25.4622    0.3084 C.2       3 UNK         0.5044 
     26 O          23.4272   26.2189    1.0833 O.2       3 UNK        -0.5152 
     27 CA         23.8826   25.6581   -1.2174 C.3       3 UNK         0.0319 
     28 CB         23.2166   26.9940   -1.6118 C.3       3 UNK        -0.2001 
     29 N          25.1582   25.4813   -1.9276 N.am      3 UNK        -0.4354 
     30 C          26.2960   26.1662   -1.7315 C.2       2 UNK         0.4964 
     31 O          26.4251   27.1183   -0.9565 O.2       2 UNK        -0.5047 
     32 CA         27.5008   25.7095   -2.5578 C.3       2 UNK         0.0288 
     33 CB         27.6254   26.5438   -3.8478 C.3       2 UNK        -0.2113 
     34 N          28.6931   25.8472   -1.7281 N.am      2 UNK        -0.4145 
     35 C          29.8910   25.3126   -1.9839 C.2       1 UNK         0.5006 
     36 O          30.1319   24.6025   -2.9649 O.2       1 UNK        -0.5103 
     37 C          26.1830   28.0937    4.1984 C.2       5 UNK         0.5055 
     38 O          25.7441   28.8576    5.0612 O.2       5 UNK        -0.5220 
     39 N          26.2249   28.3990    2.8961 N.am      6 UNK        -0.4450 
     40 CA         25.7739   29.6555    2.3033 C.3       6 UNK         0.0367 
     41 CB         24.6083   29.3883    1.3377 C.3       6 UNK        -0.1929 
     42 C          26.9419   30.3558    1.6028 C.2       6 UNK         0.5070 
     43 O          27.3200   31.4499    2.0240 O.2       6 UNK        -0.5237 
     44 N          27.4962   29.7319    0.5523 N.am      7 UNK        -0.4739 
     45 CA         28.6504   30.2615   -0.1816 C.3       7 UNK         0.0276 
     46 CB         28.8088   29.5080   -1.5082 C.3       7 UNK        -0.1927 
     47 C          29.9394   30.1735    0.6537 C.2       7 UNK         0.5013 
     48 O          30.1376   29.1885    1.3675 O.2       7 UNK        -0.5193 
     49 N          30.7819   31.2090    0.5507 N.am      8 UNK        -0.4253 
     50 CA         32.0269   31.3446    1.3068 C.3       8 UNK         0.0242 
     51 CB         32.5510   32.7830    1.1643 C.3       8 UNK        -0.2000 
     52 C          33.1003   30.3359    0.8669 C.2       8 UNK         0.4948 
     53 O          33.2545   30.0783   -0.3287 O.2       8 UNK        -0.5275 
     54 N          33.8547   29.8372    1.8480 N.am      9 UNK        -0.4246 
     55 CA         35.0027   28.9496    1.6979 C.3       9 UNK         0.0261 
     56 CB         34.5298   27.4980    1.4628 C.3       9 UNK        -0.1959 
     57 C          35.8706   29.1366    2.9533 C.2       9 UNK         0.5033 
     58 O          35.9893   30.2665    3.4342 O.2       9 UNK        -0.5390 
     59 N          36.4329   28.0455    3.4921 N.am      10 UNK        -0.4215 
     60 CA         37.1005   28.0308    4.7994 C.3       10 UNK         0.0240 
     61 CB         37.8793   26.7156    4.9667 C.3       10 UNK        -0.1982 
     62 C          36.1134   28.2310    5.9665 C.2       10 UNK         0.4970 
     63 O          36.4688   28.8784    6.9518 O.2       10 UNK        -0.4916 
     64 N          34.8991   27.6806    5.8174 N.am      11 UNK        -0.4279 
     65 CA         33.7529   27.8023    6.7369 C.3       11 UNK         0.1003 
     66 C          33.9650   27.1775    8.1502 C.2       11 UNK         0.5709 
     67 N          34.9265   26.2803    8.3354 N.am      11 UNK        -0.7358 
     68 O          33.2307   27.4797    9.0881 O.2       11 UNK        -0.4999 
     69 C69        33.1632   29.2448    6.7909 C.3       12 UNK        -0.0954 
     70 S70        32.7406   29.9219    5.1462 S.3       12 UNK        -0.2268 
     71 C71        30.9663   29.5279    5.0115 C.3       12 UNK         0.0203 
     72 H72        33.8469   27.2180   -4.0354 H         1 UNK         0.0888 
     73 H73        34.3483   28.0827   -2.5784 H         1 UNK         0.0888 
     74 H74        34.5546   26.3328   -2.6816 H         1 UNK         0.0888 
     75 H75        33.0130   25.2262   -1.5039 H         1 UNK         0.3017 
     76 H76        30.7361   26.4874   -0.3932 H         1 UNK         0.0873 
     77 H77        32.2093   24.2674    0.3201 H         1 UNK         0.0745 
     78 H78        30.8774   23.4478   -0.4172 H         1 UNK         0.0745 
     79 H79        31.9394   24.1193    3.1023 H         1 UNK         0.0705 
     80 H80        32.2938   25.5899    2.2297 H         1 UNK         0.0705 
     81 H81        31.6646   27.7445    3.0829 H         1 UNK         0.1334 
     82 H82        29.7005   27.9956    6.8826 H         1 UNK         0.1417 
     83 H83        30.1474   24.1911    4.9494 H         1 UNK         0.1562 
     84 H84        28.9889   26.0172    8.0286 H         1 UNK         0.0748 
     85 H85        29.6047   24.4711    7.5010 H         1 UNK         0.0748 
     86 H86        27.1923   27.2708    6.6549 H         1 UNK         0.0940 
     87 H87        25.6376   26.5027    6.5127 H         1 UNK         0.0940 
     88 H88        27.7290   26.6391    4.2772 H         1 UNK         0.0703 
     89 H89        25.2479   25.1495    4.4382 H         1 UNK         0.3081 
     90 H90        25.9074   23.2755    1.9765 H         1 UNK         0.0719 
     91 H91        23.3972   24.5731    3.1783 H         1 UNK         0.0809 
     92 H92        23.4644   22.9518    2.5007 H         1 UNK         0.0809 
     93 H93        24.4100   23.3369    3.9218 H         1 UNK         0.0809 
     94 H94        25.2501   23.9087   -0.0304 H         1 UNK         0.2990 
     95 H95        23.2264   24.8570   -1.5609 H         1 UNK         0.0690 
     96 H96        23.0585   27.0517   -2.6886 H         1 UNK         0.0788 
     97 H97        23.8194   27.8528   -1.3196 H         1 UNK         0.0788 
     98 H98        22.2409   27.1032   -1.1368 H         1 UNK         0.0788 
     99 H99        25.1696   24.7317   -2.6061 H         1 UNK         0.2993 
    100 H100       27.3792   24.6551   -2.8155 H         1 UNK         0.0949 
    101 H101       28.4517   26.2005   -4.4703 H         1 UNK         0.0767 
    102 H102       26.7184   26.4718   -4.4493 H         1 UNK         0.0767 
    103 H103       27.7897   27.5992   -3.6297 H         1 UNK         0.0767 
    104 H104       28.5414   26.3711   -0.8738 H         1 UNK         0.3013 
    105 H105       26.6026   27.6967    2.2634 H         1 UNK         0.3121 
    106 H106       25.4106   30.3345    3.0776 H         1 UNK         0.0774 
    107 H107       24.8798   28.6660    0.5696 H         1 UNK         0.0815 
    108 H108       24.2939   30.3038    0.8352 H         1 UNK         0.0815 
    109 H109       23.7419   28.9925    1.8677 H         1 UNK         0.0815 
    110 H110       27.1378   28.8314    0.2543 H         1 UNK         0.2987 
    111 H111       28.4483   31.3107   -0.4093 H         1 UNK         0.0949 
    112 H112       27.8925   29.5383   -2.0978 H         1 UNK         0.0806 
    113 H113       29.0719   28.4654   -1.3418 H         1 UNK         0.0806 
    114 H114       29.6039   29.9447   -2.1140 H         1 UNK         0.0806 
    115 H115       30.5642   31.9546   -0.0939 H         1 UNK         0.3010 
    116 H116       31.7932   31.1698    2.3589 H         1 UNK         0.0829 
    117 H117       33.4640   32.9248    1.7446 H         1 UNK         0.0813 
    118 H118       31.8235   33.5099    1.5263 H         1 UNK         0.0813 
    119 H119       32.7842   33.0263    0.1268 H         1 UNK         0.0813 
    120 H120       33.7103   30.1662    2.7957 H         1 UNK         0.3038 
    121 H121       35.5939   29.2780    0.8406 H         1 UNK         0.0769 
    122 H122       34.0295   27.0956    2.3431 H         1 UNK         0.0811 
    123 H123       35.3647   26.8409    1.2177 H         1 UNK         0.0811 
    124 H124       33.8287   27.4383    0.6300 H         1 UNK         0.0811 
    125 H125       36.3199   27.1588    3.0224 H         1 UNK         0.3204 
    126 H126       37.8162   28.8556    4.8264 H         1 UNK         0.0748 
    127 H127       38.3993   26.6905    5.9256 H         1 UNK         0.0771 
    128 H128       37.2231   25.8451    4.9288 H         1 UNK         0.0771 
    129 H129       38.6346   26.6009    4.1888 H         1 UNK         0.0771 
    130 H130       34.7180   27.1518    4.9789 H         1 UNK         0.2980 
    131 H131       32.9876   27.1640    6.2983 H         1 UNK         0.0545 
    132 H132       35.0508   25.8729    9.2487 H         1 UNK         0.3459 
    133 H133       35.5321   26.0147    7.5762 H         1 UNK         0.3459 
    134 H134       33.8753   29.9241    7.2615 H         1 UNK         0.0616 
    135 H135       32.2664   29.2728    7.4119 H         1 UNK         0.0616 
    136 H136       30.4293   30.0038    5.8334 H         1 UNK         0.0634 
    137 H137       30.5718   29.9653    4.0936 H         1 UNK         0.0634 
@<TRIPOS>BOND
     1    1    2 1    
     2    1   72 1    
     3    1   73 1    
     4    1   74 1    
     5    2    3 2    
     6    2    4 am   BACKBONE|DICT|INTERRES
     7    4    5 1    
     8    4   75 1    
     9    5    6 1    
    10    5   35 1    
    11    5   76 1    
    12    6    7 1    
    13    6   77 1    
    14    6   78 1    
    15    7    8 1    
    16    8    9 1    
    17    8   79 1    
    18    8   80 1    
    19    9   10 ar   
    20    9   14 ar   
    21   10   11 ar   
    22   10   81 1    
    23   11   12 ar   
    24   11   71 1    
    25   12   13 ar   
    26   12   82 1    
    27   13   14 ar   
    28   13   15 1    
    29   14   83 1    
    30   15   16 1    
    31   15   84 1    
    32   15   85 1    
    33   16   17 1    
    34   17   18 1    
    35   17   86 1    
    36   17   87 1    
    37   18   19 1    
    38   18   37 1    
    39   18   88 1    
    40   19   20 am   BACKBONE|DICT|INTERRES
    41   19   89 1    
    42   20   21 2    
    43   20   22 1    
    44   22   23 1    
    45   22   24 1    
    46   22   90 1    
    47   23   91 1    
    48   23   92 1    
    49   23   93 1    
    50   24   25 am   BACKBONE|DICT|INTERRES
    51   24   94 1    
    52   25   26 2    
    53   25   27 1    
    54   27   28 1    
    55   27   29 1    
    56   27   95 1    
    57   28   96 1    
    58   28   97 1    
    59   28   98 1    
    60   29   30 am   BACKBONE|DICT|INTERRES
    61   29   99 1    
    62   30   31 2    
    63   30   32 1    
    64   32   33 1    
    65   32   34 1    
    66   32  100 1    
    67   33  101 1    
    68   33  102 1    
    69   33  103 1    
    70   34   35 am   BACKBONE|DICT|INTERRES
    71   34  104 1    
    72   35   36 2    
    73   37   38 2    
    74   37   39 am   BACKBONE|DICT|INTERRES
    75   39   40 1    
    76   39  105 1    
    77   40   41 1    
    78   40   42 1    
    79   40  106 1    
    80   41  107 1    
    81   41  108 1    
    82   41  109 1    
    83   42   43 2    
    84   42   44 am   BACKBONE|DICT|INTERRES
    85   44   45 1    
    86   44  110 1    
    87   45   46 1    
    88   45   47 1    
    89   45  111 1    
    90   46  112 1    
    91   46  113 1    
    92   46  114 1    
    93   47   48 2    
    94   47   49 am   BACKBONE|DICT|INTERRES
    95   49   50 1    
    96   49  115 1    
    97   50   51 1    
    98   50   52 1    
    99   50  116 1    
   100   51  117 1    
   101   51  118 1    
   102   51  119 1    
   103   52   53 2    
   104   52   54 am   BACKBONE|DICT|INTERRES
   105   54   55 1    
   106   54  120 1    
   107   55   56 1    
   108   55   57 1    
   109   55  121 1    
   110   56  122 1    
   111   56  123 1    
   112   56  124 1    
   113   57   58 2    
   114   57   59 am   BACKBONE|DICT|INTERRES
   115   59   60 1    
   116   59  125 1    
   117   60   61 1    
   118   60   62 1    
   119   60  126 1    
   120   61  127 1    
   121   61  128 1    
   122   61  129 1    
   123   62   63 2    
   124   62   64 am   BACKBONE|DICT|INTERRES
   125   64   65 1    
   126   64  130 1    
   127   65   66 1    
   128   65   69 1    
   129   65  131 1    
   130   66   67 am   BACKBONE|DICT|INTERRES
   131   66   68 2    
   132   67  132 1    
   133   67  133 1    
   134   69   70 1    
   135   69  134 1    
   136   69  135 1    
   137   70   71 1    
   138   71  136 1    
   139   71  137 1    
@<TRIPOS>SUBSTRUCTURE
     1 UNK         1 GROUP             0       ****    0 ROOT    
