@<TRIPOS>MOLECULE
3R136
137   139    1
SMALL
USER_CHARGES


@<TRIPOS>ATOM
      1 CA         32.9497   23.1263   -1.2010 C.3       0 UNK        -0.1979 
      2 C          31.8440   24.1698   -1.2560 C.2       0 UNK         0.4864 
      3 O          31.7983   24.9647   -2.1949 O.2       0 UNK        -0.5359 
      4 N          30.9450   24.1676   -0.2623 N.am      1 UNK        -0.4318 
      5 CA         29.8292   25.1140   -0.1346 C.3       1 UNK         0.0824 
      6 C6         29.4818   25.3639    1.3530 C.3       12 UNK        -0.0944 
      7 S7         28.7318   23.9415    2.2227 S.3       12 UNK        -0.2672 
      8 C8         29.3997   24.1548    3.9052 C.3       12 UNK         0.0333 
      9 C9         29.0164   25.5030    4.5011 C.ar      12 UNK        -0.0807 
     10 C10        29.9758   26.5109    4.6440 C.ar      12 UNK        -0.0894 
     11 C11        29.6298   27.7627    5.1738 C.ar      12 UNK        -0.0804 
     12 C12        28.3012   27.9915    5.5448 C.ar      12 UNK        -0.0824 
     13 C13        27.3316   26.9942    5.4053 C.ar      12 UNK        -0.0762 
     14 C14        27.6994   25.7448    4.8988 C.ar      12 UNK        -0.0782 
     15 C15        25.8857   27.2731    5.7935 C.3       12 UNK         0.0230 
     16 S16        24.7510   27.1701    4.3701 S.3       12 UNK        -0.2608 
     17 C17        25.4422   28.4153    3.2232 C.3       12 UNK        -0.0989 
     18 CA         26.2645   27.7674    2.0720 C.3       5 UNK         0.0716 
     19 N          25.5297   26.7445    1.3176 N.am      5 UNK        -0.4135 
     20 C          24.4340   26.9382    0.5673 C.2       4 UNK         0.5031 
     21 O          23.8510   28.0187    0.4676 O.2       4 UNK        -0.5229 
     22 CA         23.9104   25.7381   -0.2381 C.3       4 UNK         0.0329 
     23 CB         23.8728   26.0748   -1.7399 C.3       4 UNK        -0.2001 
     24 N          24.7470   24.5507   -0.0620 N.am      4 UNK        -0.4303 
     25 C          24.3760   23.4057    0.5268 C.2       3 UNK         0.5044 
     26 O          23.2821   23.2419    1.0685 O.2       3 UNK        -0.5152 
     27 CA         25.4014   22.2482    0.5166 C.3       3 UNK         0.0319 
     28 CB         24.7318   20.8677    0.3512 C.3       3 UNK        -0.2001 
     29 N          26.4850   22.4314   -0.4605 N.am      3 UNK        -0.4354 
     30 C          26.3763   22.5419   -1.7959 C.2       2 UNK         0.4964 
     31 O          25.3328   22.3360   -2.4166 O.2       2 UNK        -0.5047 
     32 CA         27.6316   23.0073   -2.5643 C.3       2 UNK         0.0288 
     33 CB         27.2752   23.9526   -3.7323 C.3       2 UNK        -0.2113 
     34 N          28.6686   23.6160   -1.7168 N.am      2 UNK        -0.4145 
     35 C          28.5837   24.7272   -0.9650 C.2       1 UNK         0.5006 
     36 O          27.5611   25.4129   -0.8605 O.2       1 UNK        -0.5103 
     37 C          26.9115   28.8015    1.1205 C.2       5 UNK         0.5055 
     38 O          26.9384   29.9936    1.4297 O.2       5 UNK        -0.5220 
     39 N          27.4028   28.3267   -0.0370 N.am      6 UNK        -0.4450 
     40 CA         27.9987   29.1544   -1.0908 C.3       6 UNK         0.0367 
     41 CB         27.9366   28.3863   -2.4221 C.3       6 UNK        -0.1929 
     42 C          29.4443   29.5966   -0.7943 C.2       6 UNK         0.5070 
     43 O          29.9326   30.5199   -1.4471 O.2       6 UNK        -0.5237 
     44 N          30.1110   28.9292    0.1559 N.am      7 UNK        -0.4739 
     45 CA         31.4601   29.2627    0.6171 C.3       7 UNK         0.0276 
     46 CB         32.1117   27.9968    1.1987 C.3       7 UNK        -0.1927 
     47 C          31.4310   30.3940    1.6602 C.2       7 UNK         0.5013 
     48 O          30.3722   30.7058    2.2105 O.2       7 UNK        -0.5193 
     49 N          32.6056   30.9696    1.9337 N.am      8 UNK        -0.4253 
     50 CA         32.8238   32.0103    2.9340 C.3       8 UNK         0.0242 
     51 CB         32.4283   33.3831    2.3546 C.3       8 UNK        -0.2000 
     52 C          34.2972   31.9914    3.3599 C.2       8 UNK         0.4948 
     53 O          35.1147   31.3293    2.7123 O.2       8 UNK        -0.5275 
     54 N          34.6063   32.7359    4.4305 N.am      9 UNK        -0.4246 
     55 CA         35.9279   33.0178    5.0129 C.3       9 UNK         0.0261 
     56 CB         36.8388   33.7553    4.0107 C.3       9 UNK        -0.1959 
     57 C          36.6505   31.8059    5.6284 C.2       9 UNK         0.5033 
     58 O          37.1009   31.8977    6.7713 O.2       9 UNK        -0.5390 
     59 N          36.7659   30.7078    4.8723 N.am      10 UNK        -0.4215 
     60 CA         37.3807   29.4522    5.3105 C.3       10 UNK         0.0240 
     61 CB         37.6812   28.5701    4.0871 C.3       10 UNK        -0.1982 
     62 C          36.4974   28.7062    6.3228 C.2       10 UNK         0.4970 
     63 O          36.9989   28.2401    7.3466 O.2       10 UNK        -0.4916 
     64 N          35.2006   28.6212    6.0120 N.am      11 UNK        -0.4279 
     65 CA         34.1471   28.0899    6.8827 C.3       11 UNK         0.1003 
     66 C          33.6457   29.1423    7.9101 C.2       11 UNK         0.5709 
     67 N          33.0388   28.6970    9.0021 N.am      11 UNK        -0.7358 
     68 O          33.7748   30.3510    7.7203 O.2       11 UNK        -0.4999 
     69 C69        32.9907   27.4813    6.0458 C.3       12 UNK        -0.0954 
     70 S70        32.3300   28.6103    4.7707 S.3       12 UNK        -0.2268 
     71 C71        30.6315   28.9063    5.3684 C.3       12 UNK         0.0203 
     72 H72        32.9148   22.4944   -2.0879 H         1 UNK         0.0888 
     73 H73        33.9234   23.6144   -1.1685 H         1 UNK         0.0888 
     74 H74        32.8629   22.4853   -0.3238 H         1 UNK         0.0888 
     75 H75        31.0228   23.4874    0.4818 H         1 UNK         0.3017 
     76 H76        30.1581   26.0703   -0.5466 H         1 UNK         0.0873 
     77 H77        30.3903   25.6505    1.8819 H         1 UNK         0.0745 
     78 H78        28.8098   26.2146    1.4483 H         1 UNK         0.0745 
     79 H79        29.0180   23.3554    4.5419 H         1 UNK         0.0705 
     80 H80        30.4838   24.0339    3.8794 H         1 UNK         0.0705 
     81 H81        30.9901   26.3067    4.3352 H         1 UNK         0.1334 
     82 H82        28.0204   28.9575    5.9425 H         1 UNK         0.1417 
     83 H83        26.9524   24.9708    4.7837 H         1 UNK         0.1562 
     84 H84        25.7862   28.2572    6.2542 H         1 UNK         0.0748 
     85 H85        25.5733   26.5494    6.5475 H         1 UNK         0.0748 
     86 H86        26.0600   29.1157    3.7881 H         1 UNK         0.0940 
     87 H87        24.6172   29.0057    2.8215 H         1 UNK         0.0940 
     88 H88        27.1005   27.2484    2.5385 H         1 UNK         0.0703 
     89 H89        25.9212   25.8148    1.3423 H         1 UNK         0.3081 
     90 H90        22.8906   25.5435    0.0996 H         1 UNK         0.0719 
     91 H91        23.2213   26.9270   -1.9375 H         1 UNK         0.0809 
     92 H92        24.8642   26.3246   -2.1208 H         1 UNK         0.0809 
     93 H93        23.4932   25.2360   -2.3236 H         1 UNK         0.0809 
     94 H94        25.6731   24.6017   -0.4730 H         1 UNK         0.2990 
     95 H95        25.8783   22.2664    1.4977 H         1 UNK         0.0690 
     96 H96        25.4703   20.0661    0.3504 H         1 UNK         0.0788 
     97 H97        24.1619   20.8009   -0.5758 H         1 UNK         0.0788 
     98 H98        24.0403   20.6675    1.1705 H         1 UNK         0.0788 
     99 H99        27.3939   22.6135   -0.0577 H         1 UNK         0.2993 
    100 H100       28.0728   22.1047   -2.9896 H         1 UNK         0.0949 
    101 H101       26.7577   24.8479   -3.3859 H         1 UNK         0.0767 
    102 H102       28.1675   24.2697   -4.2721 H         1 UNK         0.0767 
    103 H103       26.6220   23.4593   -4.4531 H         1 UNK         0.0767 
    104 H104       29.5533   23.1282   -1.7026 H         1 UNK         0.3013 
    105 H105       27.3174   27.3355   -0.2402 H         1 UNK         0.3121 
    106 H106       27.3974   30.0602   -1.1959 H         1 UNK         0.0774 
    107 H107       28.5602   27.4922   -2.4043 H         1 UNK         0.0815 
    108 H108       26.9175   28.0803   -2.6596 H         1 UNK         0.0815 
    109 H109       28.2875   29.0084   -3.2465 H         1 UNK         0.0815 
    110 H110       29.6009   28.2535    0.7015 H         1 UNK         0.2987 
    111 H111       32.0553   29.6002   -0.2347 H         1 UNK         0.0949 
    112 H112       32.1569   27.1952    0.4616 H         1 UNK         0.0806 
    113 H113       33.1352   28.1910    1.5219 H         1 UNK         0.0806 
    114 H114       31.5649   27.6312    2.0672 H         1 UNK         0.0806 
    115 H115       33.4578   30.6304    1.5034 H         1 UNK         0.3010 
    116 H116       32.2158   31.7912    3.8149 H         1 UNK         0.0829 
    117 H117       33.0237   33.6332    1.4755 H         1 UNK         0.0813 
    118 H118       32.5716   34.1809    3.0842 H         1 UNK         0.0813 
    119 H119       31.3783   33.4040    2.0622 H         1 UNK         0.0813 
    120 H120       33.8407   33.1959    4.9045 H         1 UNK         0.3038 
    121 H121       35.7357   33.7082    5.8363 H         1 UNK         0.0769 
    122 H122       37.7829   34.0380    4.4785 H         1 UNK         0.0811 
    123 H123       36.3704   34.6710    3.6498 H         1 UNK         0.0811 
    124 H124       37.0801   33.1393    3.1438 H         1 UNK         0.0811 
    125 H125       36.3406   30.7383    3.9468 H         1 UNK         0.3204 
    126 H126       38.3278   29.6868    5.8014 H         1 UNK         0.0748 
    127 H127       36.7764   28.3266    3.5283 H         1 UNK         0.0771 
    128 H128       38.3721   29.0648    3.4040 H         1 UNK         0.0771 
    129 H129       38.1430   27.6288    4.3885 H         1 UNK         0.0771 
    130 H130       34.8727   29.0636    5.1670 H         1 UNK         0.2980 
    131 H131       34.5816   27.2741    7.4641 H         1 UNK         0.0545 
    132 H132       32.6975   29.3636    9.6768 H         1 UNK         0.3459 
    133 H133       32.9182   27.7100    9.1685 H         1 UNK         0.3459 
    134 H134       32.1837   27.1311    6.6920 H         1 UNK         0.0616 
    135 H135       33.3542   26.5917    5.5295 H         1 UNK         0.0616 
    136 H136       30.2517   29.7863    4.8476 H         1 UNK         0.0634 
    137 H137       30.6744   29.1705    6.4261 H         1 UNK         0.0634 
@<TRIPOS>BOND
     1    1    2 1    
     2    1   72 1    
     3    1   73 1    
     4    1   74 1    
     5    2    3 2    
     6    2    4 am   BACKBONE|DICT|INTERRES
     7    4    5 1    
     8    4   75 1    
     9    5    6 1    
    10    5   35 1    
    11    5   76 1    
    12    6    7 1    
    13    6   77 1    
    14    6   78 1    
    15    7    8 1    
    16    8    9 1    
    17    8   79 1    
    18    8   80 1    
    19    9   10 ar   
    20    9   14 ar   
    21   10   11 ar   
    22   10   81 1    
    23   11   12 ar   
    24   11   71 1    
    25   12   13 ar   
    26   12   82 1    
    27   13   14 ar   
    28   13   15 1    
    29   14   83 1    
    30   15   16 1    
    31   15   84 1    
    32   15   85 1    
    33   16   17 1    
    34   17   18 1    
    35   17   86 1    
    36   17   87 1    
    37   18   19 1    
    38   18   37 1    
    39   18   88 1    
    40   19   20 am   BACKBONE|DICT|INTERRES
    41   19   89 1    
    42   20   21 2    
    43   20   22 1    
    44   22   23 1    
    45   22   24 1    
    46   22   90 1    
    47   23   91 1    
    48   23   92 1    
    49   23   93 1    
    50   24   25 am   BACKBONE|DICT|INTERRES
    51   24   94 1    
    52   25   26 2    
    53   25   27 1    
    54   27   28 1    
    55   27   29 1    
    56   27   95 1    
    57   28   96 1    
    58   28   97 1    
    59   28   98 1    
    60   29   30 am   BACKBONE|DICT|INTERRES
    61   29   99 1    
    62   30   31 2    
    63   30   32 1    
    64   32   33 1    
    65   32   34 1    
    66   32  100 1    
    67   33  101 1    
    68   33  102 1    
    69   33  103 1    
    70   34   35 am   BACKBONE|DICT|INTERRES
    71   34  104 1    
    72   35   36 2    
    73   37   38 2    
    74   37   39 am   BACKBONE|DICT|INTERRES
    75   39   40 1    
    76   39  105 1    
    77   40   41 1    
    78   40   42 1    
    79   40  106 1    
    80   41  107 1    
    81   41  108 1    
    82   41  109 1    
    83   42   43 2    
    84   42   44 am   BACKBONE|DICT|INTERRES
    85   44   45 1    
    86   44  110 1    
    87   45   46 1    
    88   45   47 1    
    89   45  111 1    
    90   46  112 1    
    91   46  113 1    
    92   46  114 1    
    93   47   48 2    
    94   47   49 am   BACKBONE|DICT|INTERRES
    95   49   50 1    
    96   49  115 1    
    97   50   51 1    
    98   50   52 1    
    99   50  116 1    
   100   51  117 1    
   101   51  118 1    
   102   51  119 1    
   103   52   53 2    
   104   52   54 am   BACKBONE|DICT|INTERRES
   105   54   55 1    
   106   54  120 1    
   107   55   56 1    
   108   55   57 1    
   109   55  121 1    
   110   56  122 1    
   111   56  123 1    
   112   56  124 1    
   113   57   58 2    
   114   57   59 am   BACKBONE|DICT|INTERRES
   115   59   60 1    
   116   59  125 1    
   117   60   61 1    
   118   60   62 1    
   119   60  126 1    
   120   61  127 1    
   121   61  128 1    
   122   61  129 1    
   123   62   63 2    
   124   62   64 am   BACKBONE|DICT|INTERRES
   125   64   65 1    
   126   64  130 1    
   127   65   66 1    
   128   65   69 1    
   129   65  131 1    
   130   66   67 am   BACKBONE|DICT|INTERRES
   131   66   68 2    
   132   67  132 1    
   133   67  133 1    
   134   69   70 1    
   135   69  134 1    
   136   69  135 1    
   137   70   71 1    
   138   71  136 1    
   139   71  137 1    
@<TRIPOS>SUBSTRUCTURE
     1 UNK         1 GROUP             0       ****    0 ROOT    
