@<TRIPOS>MOLECULE
3R136
137   139    1
SMALL
USER_CHARGES


@<TRIPOS>ATOM
      1 CA         28.8442   23.2058    5.7212 C.3       0 UNK        -0.1979 
      2 C          27.8905   22.4362    4.8184 C.2       0 UNK         0.4864 
      3 O          26.9377   21.8273    5.3083 O.2       0 UNK        -0.5359 
      4 N          28.1479   22.4545    3.5058 N.am      1 UNK        -0.4318 
      5 CA         27.2988   21.8665    2.4660 C.3       1 UNK         0.0824 
      6 C6         28.1249   21.5006    1.2019 C.3       12 UNK        -0.0944 
      7 S7         29.0733   22.8980    0.5050 S.3       12 UNK        -0.2672 
      8 C8         30.7655   22.4405    0.9943 C.3       12 UNK         0.0333 
      9 C9         31.7249   23.6159    0.8789 C.ar      12 UNK        -0.0807 
     10 C10        32.2966   24.1765    2.0259 C.ar      12 UNK        -0.0894 
     11 C11        33.2142   25.2260    1.9213 C.ar      12 UNK        -0.0804 
     12 C12        33.5448   25.7287    0.6585 C.ar      12 UNK        -0.0824 
     13 C13        32.9792   25.1773   -0.4958 C.ar      12 UNK        -0.0762 
     14 C14        32.0723   24.1189   -0.3782 C.ar      12 UNK        -0.0782 
     15 C15        33.3842   25.6897   -1.8724 C.3       12 UNK         0.0230 
     16 S16        32.7375   27.3544   -2.2307 S.3       12 UNK        -0.2608 
     17 C17        30.9361   27.0644   -2.2794 C.3       12 UNK        -0.0989 
     18 CA         30.1240   28.1848   -1.5835 C.3       5 UNK         0.0716 
     19 N          28.7122   28.1102   -1.9628 N.am      5 UNK        -0.4135 
     20 C          27.7722   29.0177   -1.6650 C.2       4 UNK         0.5031 
     21 O          28.0141   30.1043   -1.1401 O.2       4 UNK        -0.5229 
     22 CA         26.3097   28.6538   -1.9923 C.3       4 UNK         0.0329 
     23 CB         25.8021   29.4893   -3.1794 C.3       4 UNK        -0.2001 
     24 N          26.0650   27.2312   -2.2710 N.am      4 UNK        -0.4303 
     25 C          26.2669   26.2176   -1.4172 C.2       3 UNK         0.5044 
     26 O          26.7681   26.3495   -0.2984 O.2       3 UNK        -0.5152 
     27 CA         25.9251   24.8162   -1.9481 C.3       3 UNK         0.0319 
     28 CB         27.1492   24.1978   -2.6436 C.3       3 UNK        -0.2001 
     29 N          25.4750   23.9211   -0.8817 N.am      3 UNK        -0.4354 
     30 C          24.2912   24.0128   -0.2576 C.2       2 UNK         0.4964 
     31 O          23.4336   24.8485   -0.5481 O.2       2 UNK        -0.5047 
     32 CA         23.9824   22.9883    0.8534 C.3       2 UNK         0.0288 
     33 CB         22.9339   21.9715    0.3701 C.3       2 UNK        -0.2113 
     34 N          25.1601   22.2590    1.3351 N.am      2 UNK        -0.4145 
     35 C          26.0962   22.7813    2.1393 C.2       1 UNK         0.5006 
     36 O          26.0351   23.9272    2.5924 O.2       1 UNK        -0.5103 
     37 C          30.3192   28.1857   -0.0487 C.2       5 UNK         0.5055 
     38 O          31.1993   28.8934    0.4448 O.2       5 UNK        -0.5220 
     39 N          29.4689   27.4549    0.6906 N.am      6 UNK        -0.4450 
     40 CA         29.5053   27.3645    2.1531 C.3       6 UNK         0.0367 
     41 CB         28.9057   26.0204    2.5967 C.3       6 UNK        -0.1929 
     42 C          28.8375   28.5707    2.8421 C.2       6 UNK         0.5070 
     43 O          28.0268   28.3970    3.7546 O.2       6 UNK        -0.5237 
     44 N          29.1888   29.7865    2.4082 N.am      7 UNK        -0.4739 
     45 CA         28.6765   31.0590    2.9191 C.3       7 UNK         0.0276 
     46 CB         28.8279   32.1344    1.8277 C.3       7 UNK        -0.1927 
     47 C          29.3434   31.4554    4.2504 C.2       7 UNK         0.5013 
     48 O          30.0005   32.4966    4.3243 O.2       7 UNK        -0.5193 
     49 N          29.1648   30.6035    5.2714 N.am      8 UNK        -0.4253 
     50 CA         29.6051   30.7469    6.6642 C.3       8 UNK         0.0242 
     51 CB         28.6766   31.7340    7.4072 C.3       8 UNK        -0.2000 
     52 C          31.1003   31.0991    6.7790 C.2       8 UNK         0.4948 
     53 O          31.9445   30.2210    6.5940 O.2       8 UNK        -0.5275 
     54 N          31.3970   32.3818    7.0353 N.am      9 UNK        -0.4246 
     55 CA         32.7383   32.9642    7.1330 C.3       9 UNK         0.0261 
     56 CB         32.6146   34.4547    7.4877 C.3       9 UNK        -0.1959 
     57 C          33.6146   32.7819    5.8797 C.2       9 UNK         0.5033 
     58 O          34.8391   32.8263    6.0064 O.2       9 UNK        -0.5390 
     59 N          33.0015   32.5323    4.7111 N.am      10 UNK        -0.4215 
     60 CA         33.6910   32.1685    3.4671 C.3       10 UNK         0.0240 
     61 CB         32.6643   32.0304    2.3333 C.3       10 UNK        -0.1982 
     62 C          34.5412   30.8864    3.5728 C.2       10 UNK         0.4970 
     63 O          35.5273   30.7668    2.8444 O.2       10 UNK        -0.4916 
     64 N          34.1701   29.9746    4.4821 N.am      11 UNK        -0.4279 
     65 CA         34.9515   28.7782    4.8281 C.3       11 UNK         0.1003 
     66 C          36.0903   29.0427    5.8578 C.2       11 UNK         0.5709 
     67 N          36.2759   30.2532    6.3734 N.am      11 UNK        -0.7358 
     68 O          36.8412   28.1271    6.1864 O.2       11 UNK        -0.4999 
     69 C69        34.0360   27.6080    5.2744 C.3       12 UNK        -0.0954 
     70 S70        32.8955   27.0852    3.9527 S.3       12 UNK        -0.2268 
     71 C71        33.8866   25.7804    3.1683 C.3       12 UNK         0.0203 
     72 H72        29.2760   22.5392    6.4673 H         1 UNK         0.0888 
     73 H73        29.6608   23.6602    5.1600 H         1 UNK         0.0888 
     74 H74        28.3084   23.9995    6.2412 H         1 UNK         0.0888 
     75 H75        28.9125   23.0120    3.1556 H         1 UNK         0.3017 
     76 H76        26.8804   20.9378    2.8610 H         1 UNK         0.0873 
     77 H77        27.4861   21.0948    0.4158 H         1 UNK         0.0745 
     78 H78        28.8126   20.6896    1.4467 H         1 UNK         0.0745 
     79 H79        31.1128   21.6220    0.3622 H         1 UNK         0.0705 
     80 H80        30.7587   22.0584    2.0162 H         1 UNK         0.0705 
     81 H81        32.0450   23.7854    3.0022 H         1 UNK         0.1334 
     82 H82        34.2543   26.5404    0.5706 H         1 UNK         0.1417 
     83 H83        31.6382   23.6768   -1.2649 H         1 UNK         0.1562 
     84 H84        33.0554   25.0046   -2.6555 H         1 UNK         0.0748 
     85 H85        34.4731   25.7179   -1.9340 H         1 UNK         0.0748 
     86 H86        30.6892   26.0914   -1.8524 H         1 UNK         0.0940 
     87 H87        30.6585   27.0040   -3.3331 H         1 UNK         0.0940 
     88 H88        30.4907   29.1457   -1.9516 H         1 UNK         0.0703 
     89 H89        28.4105   27.2573   -2.4078 H         1 UNK         0.3081 
     90 H90        25.7182   28.9168   -1.1128 H         1 UNK         0.0719 
     91 H91        25.9339   30.5562   -2.9924 H         1 UNK         0.0809 
     92 H92        26.3385   29.2518   -4.0990 H         1 UNK         0.0809 
     93 H93        24.7390   29.3250   -3.3566 H         1 UNK         0.0809 
     94 H94        25.6744   27.0197   -3.1786 H         1 UNK         0.2990 
     95 H95        25.1177   24.9027   -2.6787 H         1 UNK         0.0690 
     96 H96        27.4567   24.7964   -3.5019 H         1 UNK         0.0788 
     97 H97        26.9334   23.1950   -3.0128 H         1 UNK         0.0788 
     98 H98        28.0055   24.1307   -1.9720 H         1 UNK         0.0788 
     99 H99        26.1434   23.2423   -0.5501 H         1 UNK         0.2993 
    100 H100       23.5557   23.5450    1.6911 H         1 UNK         0.0949 
    101 H101       22.6485   21.2853    1.1679 H         1 UNK         0.0767 
    102 H102       22.0241   22.4748    0.0391 H         1 UNK         0.0767 
    103 H103       23.3017   21.3794   -0.4689 H         1 UNK         0.0767 
    104 H104       25.2651   21.3087    1.0092 H         1 UNK         0.3013 
    105 H105       28.6989   26.9746    0.2357 H         1 UNK         0.3121 
    106 H106       30.5482   27.3686    2.4663 H         1 UNK         0.0774 
    107 H107       27.8693   25.9152    2.2738 H         1 UNK         0.0815 
    108 H108       29.4753   25.1905    2.1849 H         1 UNK         0.0815 
    109 H109       28.9263   25.9145    3.6819 H         1 UNK         0.0815 
    110 H110       29.8961   29.8315    1.6814 H         1 UNK         0.2987 
    111 H111       27.6086   30.9501    3.1216 H         1 UNK         0.0949 
    112 H112       28.4680   33.1030    2.1772 H         1 UNK         0.0806 
    113 H113       29.8655   32.2612    1.5211 H         1 UNK         0.0806 
    114 H114       28.2490   31.8783    0.9403 H         1 UNK         0.0806 
    115 H115       28.6644   29.7460    5.0527 H         1 UNK         0.3010 
    116 H116       29.4880   29.7676    7.1309 H         1 UNK         0.0829 
    117 H117       28.6512   32.7170    6.9354 H         1 UNK         0.0813 
    118 H118       27.6530   31.3596    7.4302 H         1 UNK         0.0813 
    119 H119       28.9882   31.8672    8.4443 H         1 UNK         0.0813 
    120 H120       30.6244   33.0261    7.1225 H         1 UNK         0.3038 
    121 H121       33.2493   32.4573    7.9541 H         1 UNK         0.0769 
    122 H122       32.0805   35.0097    6.7152 H         1 UNK         0.0811 
    123 H123       33.5985   34.9134    7.5970 H         1 UNK         0.0811 
    124 H124       32.0874   34.5973    8.4312 H         1 UNK         0.0811 
    125 H125       31.9849   32.5296    4.6879 H         1 UNK         0.3204 
    126 H126       34.3678   32.9885    3.2188 H         1 UNK         0.0748 
    127 H127       33.1557   31.8148    1.3834 H         1 UNK         0.0771 
    128 H128       31.9619   31.2183    2.5251 H         1 UNK         0.0771 
    129 H129       32.0939   32.9500    2.2022 H         1 UNK         0.0771 
    130 H130       33.3561   30.1477    5.0621 H         1 UNK         0.2980 
    131 H131       35.4680   28.4452    3.9262 H         1 UNK         0.0545 
    132 H132       35.6929   31.0402    6.1101 H         1 UNK         0.3459 
    133 H133       37.0267   30.3908    7.0306 H         1 UNK         0.3459 
    134 H134       33.4442   27.8994    6.1437 H         1 UNK         0.0616 
    135 H135       34.6238   26.7425    5.5857 H         1 UNK         0.0616 
    136 H136       34.8702   26.1790    2.9150 H         1 UNK         0.0634 
    137 H137       34.0562   24.9769    3.8867 H         1 UNK         0.0634 
@<TRIPOS>BOND
     1    1    2 1    
     2    1   72 1    
     3    1   73 1    
     4    1   74 1    
     5    2    3 2    
     6    2    4 am   BACKBONE|DICT|INTERRES
     7    4    5 1    
     8    4   75 1    
     9    5    6 1    
    10    5   35 1    
    11    5   76 1    
    12    6    7 1    
    13    6   77 1    
    14    6   78 1    
    15    7    8 1    
    16    8    9 1    
    17    8   79 1    
    18    8   80 1    
    19    9   10 ar   
    20    9   14 ar   
    21   10   11 ar   
    22   10   81 1    
    23   11   12 ar   
    24   11   71 1    
    25   12   13 ar   
    26   12   82 1    
    27   13   14 ar   
    28   13   15 1    
    29   14   83 1    
    30   15   16 1    
    31   15   84 1    
    32   15   85 1    
    33   16   17 1    
    34   17   18 1    
    35   17   86 1    
    36   17   87 1    
    37   18   19 1    
    38   18   37 1    
    39   18   88 1    
    40   19   20 am   BACKBONE|DICT|INTERRES
    41   19   89 1    
    42   20   21 2    
    43   20   22 1    
    44   22   23 1    
    45   22   24 1    
    46   22   90 1    
    47   23   91 1    
    48   23   92 1    
    49   23   93 1    
    50   24   25 am   BACKBONE|DICT|INTERRES
    51   24   94 1    
    52   25   26 2    
    53   25   27 1    
    54   27   28 1    
    55   27   29 1    
    56   27   95 1    
    57   28   96 1    
    58   28   97 1    
    59   28   98 1    
    60   29   30 am   BACKBONE|DICT|INTERRES
    61   29   99 1    
    62   30   31 2    
    63   30   32 1    
    64   32   33 1    
    65   32   34 1    
    66   32  100 1    
    67   33  101 1    
    68   33  102 1    
    69   33  103 1    
    70   34   35 am   BACKBONE|DICT|INTERRES
    71   34  104 1    
    72   35   36 2    
    73   37   38 2    
    74   37   39 am   BACKBONE|DICT|INTERRES
    75   39   40 1    
    76   39  105 1    
    77   40   41 1    
    78   40   42 1    
    79   40  106 1    
    80   41  107 1    
    81   41  108 1    
    82   41  109 1    
    83   42   43 2    
    84   42   44 am   BACKBONE|DICT|INTERRES
    85   44   45 1    
    86   44  110 1    
    87   45   46 1    
    88   45   47 1    
    89   45  111 1    
    90   46  112 1    
    91   46  113 1    
    92   46  114 1    
    93   47   48 2    
    94   47   49 am   BACKBONE|DICT|INTERRES
    95   49   50 1    
    96   49  115 1    
    97   50   51 1    
    98   50   52 1    
    99   50  116 1    
   100   51  117 1    
   101   51  118 1    
   102   51  119 1    
   103   52   53 2    
   104   52   54 am   BACKBONE|DICT|INTERRES
   105   54   55 1    
   106   54  120 1    
   107   55   56 1    
   108   55   57 1    
   109   55  121 1    
   110   56  122 1    
   111   56  123 1    
   112   56  124 1    
   113   57   58 2    
   114   57   59 am   BACKBONE|DICT|INTERRES
   115   59   60 1    
   116   59  125 1    
   117   60   61 1    
   118   60   62 1    
   119   60  126 1    
   120   61  127 1    
   121   61  128 1    
   122   61  129 1    
   123   62   63 2    
   124   62   64 am   BACKBONE|DICT|INTERRES
   125   64   65 1    
   126   64  130 1    
   127   65   66 1    
   128   65   69 1    
   129   65  131 1    
   130   66   67 am   BACKBONE|DICT|INTERRES
   131   66   68 2    
   132   67  132 1    
   133   67  133 1    
   134   69   70 1    
   135   69  134 1    
   136   69  135 1    
   137   70   71 1    
   138   71  136 1    
   139   71  137 1    
@<TRIPOS>SUBSTRUCTURE
     1 UNK         1 GROUP             0       ****    0 ROOT    
