@<TRIPOS>MOLECULE
3R136
137   139    1
SMALL
USER_CHARGES


@<TRIPOS>ATOM
      1 CA         31.5862   22.1756    5.2547 C.3       0 UNK        -0.1979 
      2 C          30.4217   21.9747    4.2959 C.2       0 UNK         0.4864 
      3 O          29.6120   21.0683    4.4960 O.2       0 UNK        -0.5359 
      4 N          30.3340   22.8181    3.2611 N.am      1 UNK        -0.4318 
      5 CA         29.2405   22.8338    2.2828 C.3       1 UNK         0.0824 
      6 C6         29.7131   23.3528    0.9073 C.3       12 UNK        -0.0944 
      7 S7         30.8681   22.2059    0.0794 S.3       12 UNK        -0.2672 
      8 C8         32.4981   22.9428    0.4245 C.3       12 UNK         0.0333 
      9 C9         32.5807   24.3970   -0.0149 C.ar      12 UNK        -0.0807 
     10 C10        32.6347   25.4118    0.9429 C.ar      12 UNK        -0.0894 
     11 C11        32.6968   26.7560    0.5669 C.ar      12 UNK        -0.0804 
     12 C12        32.6727   27.0769   -0.7947 C.ar      12 UNK        -0.0824 
     13 C13        32.5300   26.0733   -1.7606 C.ar      12 UNK        -0.0762 
     14 C14        32.5316   24.7326   -1.3692 C.ar      12 UNK        -0.0782 
     15 C15        32.2514   26.4379   -3.2120 C.3       12 UNK         0.0230 
     16 S16        30.4560   26.3730   -3.5672 S.3       12 UNK        -0.2608 
     17 C17        29.8317   27.5770   -2.3493 C.3       12 UNK        -0.0989 
     18 CA         28.3193   27.9041   -2.4635 C.3       5 UNK         0.0716 
     19 N          27.4026   26.7813   -2.2068 N.am      5 UNK        -0.4135 
     20 C          27.2904   26.0588   -1.0830 C.2       4 UNK         0.5031 
     21 O          28.0911   26.1063   -0.1461 O.2       4 UNK        -0.5229 
     22 CA         26.0269   25.1931   -0.9507 C.3       4 UNK         0.0329 
     23 CB         26.2985   23.7042   -1.2178 C.3       4 UNK        -0.2001 
     24 N          25.4529   25.3693    0.3853 N.am      4 UNK        -0.4303 
     25 C          24.7442   26.4502    0.7461 C.2       3 UNK         0.5044 
     26 O          24.3886   27.3239   -0.0463 O.2       3 UNK        -0.5152 
     27 CA         24.3539   26.5961    2.2278 C.3       3 UNK         0.0319 
     28 CB         22.9237   26.0823    2.4594 C.3       3 UNK        -0.2001 
     29 N          25.2630   25.9128    3.1486 N.am      3 UNK        -0.4354 
     30 C          26.5106   26.3073    3.4385 C.2       2 UNK         0.4964 
     31 O          27.0409   27.3175    2.9771 O.2       2 UNK        -0.5047 
     32 CA         27.3062   25.4324    4.4242 C.3       2 UNK         0.0288 
     33 CB         26.4221   24.5874    5.3704 C.3       2 UNK        -0.2113 
     34 N          28.2834   24.5831    3.7376 N.am      2 UNK        -0.4145 
     35 C          28.0395   23.6580    2.7930 C.2       1 UNK         0.5006 
     36 O          26.9184   23.4229    2.3353 O.2       1 UNK        -0.5103 
     37 C          27.9797   29.1219   -1.5765 C.2       5 UNK         0.5055 
     38 O          27.6394   30.1779   -2.1111 O.2       5 UNK        -0.5220 
     39 N          28.1080   28.9521   -0.2500 N.am      6 UNK        -0.4450 
     40 CA         27.9505   29.9564    0.8103 C.3       6 UNK         0.0367 
     41 CB         26.4729   30.3792    0.9445 C.3       6 UNK        -0.1929 
     42 C          28.9086   31.1557    0.6533 C.2       6 UNK         0.5070 
     43 O          28.5390   32.2886    0.9659 O.2       6 UNK        -0.5237 
     44 N          30.1245   30.8855    0.1542 N.am      7 UNK        -0.4739 
     45 CA         31.1381   31.8961   -0.1662 C.3       7 UNK         0.0276 
     46 CB         32.2181   31.2693   -1.0635 C.3       7 UNK        -0.1927 
     47 C          31.7764   32.5530    1.0699 C.2       7 UNK         0.5013 
     48 O          32.2483   33.6863    0.9678 O.2       7 UNK        -0.5193 
     49 N          31.7792   31.8457    2.2054 N.am      8 UNK        -0.4253 
     50 CA         32.2722   32.3208    3.4916 C.3       8 UNK         0.0242 
     51 CB         33.8029   32.1665    3.5654 C.3       8 UNK        -0.2000 
     52 C          31.5984   31.5032    4.5930 C.2       8 UNK         0.4948 
     53 O          31.4073   30.2960    4.4223 O.2       8 UNK        -0.5275 
     54 N          31.3171   32.1485    5.7327 N.am      9 UNK        -0.4246 
     55 CA         30.7466   31.5193    6.9327 C.3       9 UNK         0.0261 
     56 CB         30.3864   32.6107    7.9539 C.3       9 UNK        -0.1959 
     57 C          31.6619   30.4586    7.5763 C.2       9 UNK         0.5033 
     58 O          31.1743   29.6103    8.3236 O.2       9 UNK        -0.5390 
     59 N          32.9620   30.5130    7.2565 N.am      10 UNK        -0.4215 
     60 CA         33.9769   29.5317    7.6344 C.3       10 UNK         0.0240 
     61 CB         35.3672   30.1186    7.3374 C.3       10 UNK        -0.1982 
     62 C          33.8169   28.1633    6.9433 C.2       10 UNK         0.4970 
     63 O          34.3925   27.1942    7.4409 O.2       10 UNK        -0.4916 
     64 N          33.0711   28.0926    5.8301 N.am      11 UNK        -0.4279 
     65 CA         32.8549   26.8540    5.0662 C.3       11 UNK         0.1003 
     66 C          31.3973   26.6267    4.5805 C.2       11 UNK         0.5709 
     67 N          30.5216   27.6241    4.5805 N.am      11 UNK        -0.7358 
     68 O          31.0460   25.5104    4.2024 O.2       11 UNK        -0.4999 
     69 C69        33.9276   26.6493    3.9580 C.3       12 UNK        -0.0954 
     70 S70        34.0973   27.9856    2.7111 S.3       12 UNK        -0.2268 
     71 C71        32.6393   27.8658    1.6139 C.3       12 UNK         0.0203 
     72 H72        32.1882   21.2691    5.3101 H         1 UNK         0.0888 
     73 H73        32.2345   22.9946    4.9427 H         1 UNK         0.0888 
     74 H74        31.2140   22.4011    6.2536 H         1 UNK         0.0888 
     75 H75        30.9872   23.5888    3.2020 H         1 UNK         0.3017 
     76 H76        28.8765   21.8130    2.1458 H         1 UNK         0.0873 
     77 H77        28.8701   23.4653    0.2292 H         1 UNK         0.0745 
     78 H78        30.1344   24.3535    0.9969 H         1 UNK         0.0745 
     79 H79        32.7153   22.8432    1.4890 H         1 UNK         0.0705 
     80 H80        33.2634   22.3663   -0.0970 H         1 UNK         0.0705 
     81 H81        32.5673   25.1425    1.9819 H         1 UNK         0.1334 
     82 H82        32.6664   28.1129   -1.1024 H         1 UNK         0.1417 
     83 H83        32.4191   23.9532   -2.1107 H         1 UNK         0.1562 
     84 H84        32.7743   25.7482   -3.8762 H         1 UNK         0.0748 
     85 H85        32.6330   27.4344   -3.4400 H         1 UNK         0.0748 
     86 H86        30.4225   28.4873   -2.4722 H         1 UNK         0.0940 
     87 H87        30.0554   27.2009   -1.3514 H         1 UNK         0.0940 
     88 H88        28.1296   28.2089   -3.4942 H         1 UNK         0.0703 
     89 H89        26.6859   26.6630   -2.9088 H         1 UNK         0.3081 
     90 H90        25.2997   25.5299   -1.6930 H         1 UNK         0.0719 
     91 H91        26.7923   23.2187   -0.3790 H         1 UNK         0.0809 
     92 H92        25.3663   23.1675   -1.3947 H         1 UNK         0.0809 
     93 H93        26.9244   23.5649   -2.1003 H         1 UNK         0.0809 
     94 H94        25.7731   24.7312    1.1060 H         1 UNK         0.2990 
     95 H95        24.3747   27.6620    2.4653 H         1 UNK         0.0690 
     96 H96        22.6006   26.2553    3.4862 H         1 UNK         0.0788 
     97 H97        22.8401   25.0141    2.2550 H         1 UNK         0.0788 
     98 H98        22.2147   26.5952    1.8078 H         1 UNK         0.0788 
     99 H99        24.9337   25.0505    3.5583 H         1 UNK         0.2993 
    100 H100       27.8786   26.1212    5.0473 H         1 UNK         0.0949 
    101 H101       27.0294   24.0986    6.1325 H         1 UNK         0.0767 
    102 H102       25.6967   25.2121    5.8936 H         1 UNK         0.0767 
    103 H103       25.8712   23.8066    4.8452 H         1 UNK         0.0767 
    104 H104       29.2532   24.7471    3.9917 H         1 UNK         0.3013 
    105 H105       28.3187   28.0070    0.0665 H         1 UNK         0.3121 
    106 H106       28.2367   29.4640    1.7408 H         1 UNK         0.0774 
    107 H107       26.3287   31.0322    1.8059 H         1 UNK         0.0815 
    108 H108       26.1235   30.9179    0.0633 H         1 UNK         0.0815 
    109 H109       25.8278   29.5124    1.0871 H         1 UNK         0.0815 
    110 H110       30.3410   29.9279   -0.0763 H         1 UNK         0.2987 
    111 H111       30.6467   32.6897   -0.7340 H         1 UNK         0.0949 
    112 H112       32.7847   30.4988   -0.5416 H         1 UNK         0.0806 
    113 H113       31.7859   30.8263   -1.9610 H         1 UNK         0.0806 
    114 H114       32.9330   32.0253   -1.3914 H         1 UNK         0.0806 
    115 H115       31.3438   30.9329    2.2297 H         1 UNK         0.3010 
    116 H116       32.0011   33.3719    3.6131 H         1 UNK         0.0829 
    117 H117       34.2995   32.7468    2.7877 H         1 UNK         0.0813 
    118 H118       34.1892   32.5168    4.5231 H         1 UNK         0.0813 
    119 H119       34.1078   31.1253    3.4490 H         1 UNK         0.0813 
    120 H120       31.5132   33.1380    5.7942 H         1 UNK         0.3038 
    121 H121       29.8270   31.0107    6.6348 H         1 UNK         0.0769 
    122 H122       31.2659   33.1693    8.2766 H         1 UNK         0.0811 
    123 H123       29.9318   32.1763    8.8455 H         1 UNK         0.0811 
    124 H124       29.6687   33.3202    7.5414 H         1 UNK         0.0811 
    125 H125       33.2634   31.2627    6.6527 H         1 UNK         0.3204 
    126 H126       33.8971   29.3632    8.7105 H         1 UNK         0.0748 
    127 H127       35.5296   31.0513    7.8781 H         1 UNK         0.0771 
    128 H128       36.1560   29.4293    7.6426 H         1 UNK         0.0771 
    129 H129       35.5030   30.3170    6.2732 H         1 UNK         0.0771 
    130 H130       32.6218   28.9234    5.4652 H         1 UNK         0.2980 
    131 H131       32.9880   26.0225    5.7609 H         1 UNK         0.0545 
    132 H132       29.5879   27.4518    4.2479 H         1 UNK         0.3459 
    133 H133       30.8149   28.5817    4.7473 H         1 UNK         0.3459 
    134 H134       33.8335   25.6764    3.4862 H         1 UNK         0.0616 
    135 H135       34.8994   26.5935    4.4506 H         1 UNK         0.0616 
    136 H136       31.7206   27.7709    2.1843 H         1 UNK         0.0634 
    137 H137       32.5519   28.8310    1.1159 H         1 UNK         0.0634 
@<TRIPOS>BOND
     1    1    2 1    
     2    1   72 1    
     3    1   73 1    
     4    1   74 1    
     5    2    3 2    
     6    2    4 am   BACKBONE|DICT|INTERRES
     7    4    5 1    
     8    4   75 1    
     9    5    6 1    
    10    5   35 1    
    11    5   76 1    
    12    6    7 1    
    13    6   77 1    
    14    6   78 1    
    15    7    8 1    
    16    8    9 1    
    17    8   79 1    
    18    8   80 1    
    19    9   10 ar   
    20    9   14 ar   
    21   10   11 ar   
    22   10   81 1    
    23   11   12 ar   
    24   11   71 1    
    25   12   13 ar   
    26   12   82 1    
    27   13   14 ar   
    28   13   15 1    
    29   14   83 1    
    30   15   16 1    
    31   15   84 1    
    32   15   85 1    
    33   16   17 1    
    34   17   18 1    
    35   17   86 1    
    36   17   87 1    
    37   18   19 1    
    38   18   37 1    
    39   18   88 1    
    40   19   20 am   BACKBONE|DICT|INTERRES
    41   19   89 1    
    42   20   21 2    
    43   20   22 1    
    44   22   23 1    
    45   22   24 1    
    46   22   90 1    
    47   23   91 1    
    48   23   92 1    
    49   23   93 1    
    50   24   25 am   BACKBONE|DICT|INTERRES
    51   24   94 1    
    52   25   26 2    
    53   25   27 1    
    54   27   28 1    
    55   27   29 1    
    56   27   95 1    
    57   28   96 1    
    58   28   97 1    
    59   28   98 1    
    60   29   30 am   BACKBONE|DICT|INTERRES
    61   29   99 1    
    62   30   31 2    
    63   30   32 1    
    64   32   33 1    
    65   32   34 1    
    66   32  100 1    
    67   33  101 1    
    68   33  102 1    
    69   33  103 1    
    70   34   35 am   BACKBONE|DICT|INTERRES
    71   34  104 1    
    72   35   36 2    
    73   37   38 2    
    74   37   39 am   BACKBONE|DICT|INTERRES
    75   39   40 1    
    76   39  105 1    
    77   40   41 1    
    78   40   42 1    
    79   40  106 1    
    80   41  107 1    
    81   41  108 1    
    82   41  109 1    
    83   42   43 2    
    84   42   44 am   BACKBONE|DICT|INTERRES
    85   44   45 1    
    86   44  110 1    
    87   45   46 1    
    88   45   47 1    
    89   45  111 1    
    90   46  112 1    
    91   46  113 1    
    92   46  114 1    
    93   47   48 2    
    94   47   49 am   BACKBONE|DICT|INTERRES
    95   49   50 1    
    96   49  115 1    
    97   50   51 1    
    98   50   52 1    
    99   50  116 1    
   100   51  117 1    
   101   51  118 1    
   102   51  119 1    
   103   52   53 2    
   104   52   54 am   BACKBONE|DICT|INTERRES
   105   54   55 1    
   106   54  120 1    
   107   55   56 1    
   108   55   57 1    
   109   55  121 1    
   110   56  122 1    
   111   56  123 1    
   112   56  124 1    
   113   57   58 2    
   114   57   59 am   BACKBONE|DICT|INTERRES
   115   59   60 1    
   116   59  125 1    
   117   60   61 1    
   118   60   62 1    
   119   60  126 1    
   120   61  127 1    
   121   61  128 1    
   122   61  129 1    
   123   62   63 2    
   124   62   64 am   BACKBONE|DICT|INTERRES
   125   64   65 1    
   126   64  130 1    
   127   65   66 1    
   128   65   69 1    
   129   65  131 1    
   130   66   67 am   BACKBONE|DICT|INTERRES
   131   66   68 2    
   132   67  132 1    
   133   67  133 1    
   134   69   70 1    
   135   69  134 1    
   136   69  135 1    
   137   70   71 1    
   138   71  136 1    
   139   71  137 1    
@<TRIPOS>SUBSTRUCTURE
     1 UNK         1 GROUP             0       ****    0 ROOT    
