@<TRIPOS>MOLECULE
3R136
137   139    1
SMALL
USER_CHARGES


@<TRIPOS>ATOM
      1 CA         25.9678   21.3955   -0.3207 C.3       0 UNK        -0.1979 
      2 C          27.2064   21.8805   -1.0589 C.2       0 UNK         0.4864 
      3 O          27.0821   22.5817   -2.0641 O.2       0 UNK        -0.5359 
      4 N          28.3956   21.5040   -0.5734 N.am      1 UNK        -0.4318 
      5 CA         29.6958   21.9633   -1.0713 C.3       1 UNK         0.0824 
      6 C6         30.8228   20.9127   -0.8479 C.3       12 UNK        -0.0944 
      7 S7         30.8691   20.1069    0.7899 S.3       12 UNK        -0.2672 
      8 C8         31.8272   21.2894    1.8045 C.3       12 UNK         0.0333 
      9 C9         31.0099   22.1057    2.8104 C.ar      12 UNK        -0.0807 
     10 C10        31.6531   23.1243    3.5220 C.ar      12 UNK        -0.0894 
     11 C11        30.9639   23.8794    4.4763 C.ar      12 UNK        -0.0804 
     12 C12        29.6147   23.6131    4.7238 C.ar      12 UNK        -0.0824 
     13 C13        28.9540   22.6070    4.0152 C.ar      12 UNK        -0.0762 
     14 C14        29.6555   21.8555    3.0708 C.ar      12 UNK        -0.0782 
     15 C15        27.4810   22.3197    4.2572 C.3       12 UNK         0.0230 
     16 S16        26.4420   23.1104    2.9893 S.3       12 UNK        -0.2608 
     17 C17        26.4066   24.8379    3.5763 C.3       12 UNK        -0.0989 
     18 CA         27.4233   25.7752    2.8606 C.3       5 UNK         0.0716 
     19 N          27.3116   25.7582    1.3979 N.am      5 UNK        -0.4135 
     20 C          26.2524   26.1050    0.6550 C.2       4 UNK         0.5031 
     21 O          25.1759   26.4859    1.1190 O.2       4 UNK        -0.5229 
     22 CA         26.4760   26.0758   -0.8720 C.3       4 UNK         0.0329 
     23 CB         25.2899   26.6609   -1.6669 C.3       4 UNK        -0.2001 
     24 N          27.7325   26.7340   -1.2610 N.am      4 UNK        -0.4303 
     25 C          28.1206   27.9787   -0.9420 C.2       3 UNK         0.5044 
     26 O          27.4093   28.7686   -0.3240 O.2       3 UNK        -0.5152 
     27 CA         29.5613   28.3822   -1.3150 C.3       3 UNK         0.0319 
     28 CB         29.9463   29.7695   -0.7646 C.3       3 UNK        -0.2001 
     29 N          30.5257   27.3889   -0.8310 N.am      3 UNK        -0.4354 
     30 C          30.8268   26.2513   -1.4682 C.2       2 UNK         0.4964 
     31 O          30.3792   25.9691   -2.5822 O.2       2 UNK        -0.5047 
     32 CA         31.7323   25.2324   -0.7479 C.3       2 UNK         0.0288 
     33 CB         31.9556   25.5109    0.7569 C.3       2 UNK        -0.2113 
     34 N          31.2309   23.8693   -0.9576 N.am      2 UNK        -0.4145 
     35 C          30.0463   23.3795   -0.5566 C.2       1 UNK         0.5006 
     36 O          29.2490   24.0124    0.1444 O.2       1 UNK        -0.5103 
     37 C          27.4113   27.1872    3.5017 C.2       5 UNK         0.5055 
     38 O          27.4078   27.2636    4.7325 O.2       5 UNK        -0.5220 
     39 N          27.3913   28.2787    2.7180 N.am      6 UNK        -0.4450 
     40 CA         27.3274   29.6447    3.2466 C.3       6 UNK         0.0367 
     41 CB         26.9085   30.6279    2.1425 C.3       6 UNK        -0.1929 
     42 C          28.6593   30.0843    3.8737 C.2       6 UNK         0.5070 
     43 O          29.6992   30.0240    3.2138 O.2       6 UNK        -0.5237 
     44 N          28.5837   30.5658    5.1203 N.am      7 UNK        -0.4739 
     45 CA         29.6891   31.2006    5.8383 C.3       7 UNK         0.0276 
     46 CB         29.3240   31.3011    7.3282 C.3       7 UNK        -0.1927 
     47 C          30.0060   32.5915    5.2628 C.2       7 UNK         0.5013 
     48 O          29.1464   33.2042    4.6234 O.2       7 UNK        -0.5193 
     49 N          31.2398   33.0603    5.4918 N.am      8 UNK        -0.4253 
     50 CA         31.8473   34.3170    5.0213 C.3       8 UNK         0.0242 
     51 CB         31.0535   35.5571    5.4784 C.3       8 UNK        -0.2000 
     52 C          32.1198   34.3461    3.5060 C.2       8 UNK         0.4948 
     53 O          33.1952   34.7890    3.1010 O.2       8 UNK        -0.5275 
     54 N          31.1777   33.8370    2.7007 N.am      9 UNK        -0.4246 
     55 CA         31.3554   33.5354    1.2775 C.3       9 UNK         0.0261 
     56 CB         29.9928   33.1850    0.6591 C.3       9 UNK        -0.1959 
     57 C          32.3629   32.3923    1.0518 C.2       9 UNK         0.5033 
     58 O          33.1157   32.4271    0.0775 O.2       9 UNK        -0.5390 
     59 N          32.3751   31.4275    1.9770 N.am      10 UNK        -0.4215 
     60 CA         33.3372   30.3408    2.1027 C.3       10 UNK         0.0240 
     61 CB         33.0010   29.2141    1.1076 C.3       10 UNK        -0.1982 
     62 C          33.3258   29.8760    3.5689 C.2       10 UNK         0.4970 
     63 O          32.8527   30.6157    4.4363 O.2       10 UNK        -0.4916 
     64 N          33.8493   28.6695    3.8222 N.am      11 UNK        -0.4279 
     65 CA         33.8516   27.9860    5.1300 C.3       11 UNK         0.1003 
     66 C          34.7264   28.6661    6.2293 C.2       11 UNK         0.5709 
     67 N          35.6339   29.5726    5.8857 N.am      11 UNK        -0.7358 
     68 O          34.6123   28.3432    7.4095 O.2       11 UNK        -0.4999 
     69 C69        32.4173   27.6385    5.6307 C.3       12 UNK        -0.0954 
     70 S70        31.4877   26.5931    4.4574 S.3       12 UNK        -0.2268 
     71 C71        31.6794   24.9710    5.2546 C.3       12 UNK         0.0203 
     72 H72        25.3491   20.7878   -0.9803 H         1 UNK         0.0888 
     73 H73        26.2231   20.7979    0.5544 H         1 UNK         0.0888 
     74 H74        25.3769   22.2475    0.0151 H         1 UNK         0.0888 
     75 H75        28.4388   20.9365    0.2600 H         1 UNK         0.3017 
     76 H76        29.6025   22.0820   -2.1533 H         1 UNK         0.0873 
     77 H77        30.6712   20.1060   -1.5669 H         1 UNK         0.0745 
     78 H78        31.8130   21.3023   -1.0879 H         1 UNK         0.0745 
     79 H79        32.3827   21.9664    1.1544 H         1 UNK         0.0705 
     80 H80        32.5742   20.7208    2.3599 H         1 UNK         0.0705 
     81 H81        32.6992   23.3275    3.3376 H         1 UNK         0.1334 
     82 H82        29.0774   24.1989    5.4573 H         1 UNK         0.1417 
     83 H83        29.1245   21.0757    2.5469 H         1 UNK         0.1562 
     84 H84        27.1764   22.6428    5.2538 H         1 UNK         0.0748 
     85 H85        27.3108   21.2425    4.2262 H         1 UNK         0.0748 
     86 H86        26.5754   24.8363    4.6544 H         1 UNK         0.0940 
     87 H87        25.3903   25.2128    3.4451 H         1 UNK         0.0940 
     88 H88        28.4240   25.3915    3.0565 H         1 UNK         0.0703 
     89 H89        28.1165   25.3659    0.9141 H         1 UNK         0.3081 
     90 H90        26.5765   25.0259   -1.1469 H         1 UNK         0.0719 
     91 H91        25.1132   27.7079   -1.4182 H         1 UNK         0.0809 
     92 H92        25.4620   26.5950   -2.7410 H         1 UNK         0.0809 
     93 H93        24.3701   26.1154   -1.4523 H         1 UNK         0.0809 
     94 H94        28.4019   26.1550   -1.7557 H         1 UNK         0.2990 
     95 H95        29.6075   28.4363   -2.4048 H         1 UNK         0.0690 
     96 H96        30.9370   30.0706   -1.1033 H         1 UNK         0.0788 
     97 H97        29.9403   29.7897    0.3263 H         1 UNK         0.0788 
     98 H98        29.2480   30.5340   -1.1075 H         1 UNK         0.0788 
     99 H99        30.8908   27.5294    0.0991 H         1 UNK         0.2993 
    100 H100       32.7026   25.2856   -1.2439 H         1 UNK         0.0949 
    101 H101       31.0210   25.5771    1.3158 H         1 UNK         0.0767 
    102 H102       32.5510   24.7201    1.2118 H         1 UNK         0.0767 
    103 H103       32.5045   26.4367    0.9121 H         1 UNK         0.0767 
    104 H104       31.7958   23.2992   -1.5707 H         1 UNK         0.3013 
    105 H105       27.4002   28.1840    1.7087 H         1 UNK         0.3121 
    106 H106       26.5489   29.6665    4.0126 H         1 UNK         0.0774 
    107 H107       26.7571   31.6278    2.5513 H         1 UNK         0.0815 
    108 H108       27.6703   30.7112    1.3674 H         1 UNK         0.0815 
    109 H109       25.9760   30.3234    1.6672 H         1 UNK         0.0815 
    110 H110       27.6801   30.6039    5.5688 H         1 UNK         0.2987 
    111 H111       30.5718   30.5681    5.7325 H         1 UNK         0.0949 
    112 H112       28.4463   31.9290    7.4876 H         1 UNK         0.0806 
    113 H113       29.1165   30.3185    7.7527 H         1 UNK         0.0806 
    114 H114       30.1425   31.7337    7.9050 H         1 UNK         0.0806 
    115 H115       31.8836   32.4393    5.9653 H         1 UNK         0.3010 
    116 H116       32.8227   34.3623    5.5088 H         1 UNK         0.0829 
    117 H117       30.8988   35.5536    6.5573 H         1 UNK         0.0813 
    118 H118       31.5925   36.4726    5.2311 H         1 UNK         0.0813 
    119 H119       30.0764   35.6219    4.9991 H         1 UNK         0.0813 
    120 H120       30.3091   33.5401    3.1384 H         1 UNK         0.3038 
    121 H121       31.7431   34.4292    0.7843 H         1 UNK         0.0769 
    122 H122       30.0921   32.9682   -0.4054 H         1 UNK         0.0811 
    123 H123       29.2874   34.0102    0.7577 H         1 UNK         0.0811 
    124 H124       29.5508   32.3073    1.1323 H         1 UNK         0.0811 
    125 H125       31.7282   31.4831    2.7555 H         1 UNK         0.3204 
    126 H126       34.3348   30.7289    1.8888 H         1 UNK         0.0748 
    127 H127       33.7655   28.4373    1.1114 H         1 UNK         0.0771 
    128 H128       32.0437   28.7532    1.3522 H         1 UNK         0.0771 
    129 H129       32.9456   29.5886    0.0859 H         1 UNK         0.0771 
    130 H130       34.2391   28.1402    3.0571 H         1 UNK         0.2980 
    131 H131       34.3572   27.0370    4.9491 H         1 UNK         0.0545 
    132 H132       36.2027   29.9967    6.6012 H         1 UNK         0.3459 
    133 H133       35.7468   29.8432    4.9225 H         1 UNK         0.3459 
    134 H134       32.4561   27.1261    6.5932 H         1 UNK         0.0616 
    135 H135       31.8407   28.5466    5.8058 H         1 UNK         0.0616 
    136 H136       32.7414   24.7371    5.3441 H         1 UNK         0.0634 
    137 H137       31.2853   25.0179    6.2710 H         1 UNK         0.0634 
@<TRIPOS>BOND
     1    1    2 1    
     2    1   72 1    
     3    1   73 1    
     4    1   74 1    
     5    2    3 2    
     6    2    4 am   BACKBONE|DICT|INTERRES
     7    4    5 1    
     8    4   75 1    
     9    5    6 1    
    10    5   35 1    
    11    5   76 1    
    12    6    7 1    
    13    6   77 1    
    14    6   78 1    
    15    7    8 1    
    16    8    9 1    
    17    8   79 1    
    18    8   80 1    
    19    9   10 ar   
    20    9   14 ar   
    21   10   11 ar   
    22   10   81 1    
    23   11   12 ar   
    24   11   71 1    
    25   12   13 ar   
    26   12   82 1    
    27   13   14 ar   
    28   13   15 1    
    29   14   83 1    
    30   15   16 1    
    31   15   84 1    
    32   15   85 1    
    33   16   17 1    
    34   17   18 1    
    35   17   86 1    
    36   17   87 1    
    37   18   19 1    
    38   18   37 1    
    39   18   88 1    
    40   19   20 am   BACKBONE|DICT|INTERRES
    41   19   89 1    
    42   20   21 2    
    43   20   22 1    
    44   22   23 1    
    45   22   24 1    
    46   22   90 1    
    47   23   91 1    
    48   23   92 1    
    49   23   93 1    
    50   24   25 am   BACKBONE|DICT|INTERRES
    51   24   94 1    
    52   25   26 2    
    53   25   27 1    
    54   27   28 1    
    55   27   29 1    
    56   27   95 1    
    57   28   96 1    
    58   28   97 1    
    59   28   98 1    
    60   29   30 am   BACKBONE|DICT|INTERRES
    61   29   99 1    
    62   30   31 2    
    63   30   32 1    
    64   32   33 1    
    65   32   34 1    
    66   32  100 1    
    67   33  101 1    
    68   33  102 1    
    69   33  103 1    
    70   34   35 am   BACKBONE|DICT|INTERRES
    71   34  104 1    
    72   35   36 2    
    73   37   38 2    
    74   37   39 am   BACKBONE|DICT|INTERRES
    75   39   40 1    
    76   39  105 1    
    77   40   41 1    
    78   40   42 1    
    79   40  106 1    
    80   41  107 1    
    81   41  108 1    
    82   41  109 1    
    83   42   43 2    
    84   42   44 am   BACKBONE|DICT|INTERRES
    85   44   45 1    
    86   44  110 1    
    87   45   46 1    
    88   45   47 1    
    89   45  111 1    
    90   46  112 1    
    91   46  113 1    
    92   46  114 1    
    93   47   48 2    
    94   47   49 am   BACKBONE|DICT|INTERRES
    95   49   50 1    
    96   49  115 1    
    97   50   51 1    
    98   50   52 1    
    99   50  116 1    
   100   51  117 1    
   101   51  118 1    
   102   51  119 1    
   103   52   53 2    
   104   52   54 am   BACKBONE|DICT|INTERRES
   105   54   55 1    
   106   54  120 1    
   107   55   56 1    
   108   55   57 1    
   109   55  121 1    
   110   56  122 1    
   111   56  123 1    
   112   56  124 1    
   113   57   58 2    
   114   57   59 am   BACKBONE|DICT|INTERRES
   115   59   60 1    
   116   59  125 1    
   117   60   61 1    
   118   60   62 1    
   119   60  126 1    
   120   61  127 1    
   121   61  128 1    
   122   61  129 1    
   123   62   63 2    
   124   62   64 am   BACKBONE|DICT|INTERRES
   125   64   65 1    
   126   64  130 1    
   127   65   66 1    
   128   65   69 1    
   129   65  131 1    
   130   66   67 am   BACKBONE|DICT|INTERRES
   131   66   68 2    
   132   67  132 1    
   133   67  133 1    
   134   69   70 1    
   135   69  134 1    
   136   69  135 1    
   137   70   71 1    
   138   71  136 1    
   139   71  137 1    
@<TRIPOS>SUBSTRUCTURE
     1 UNK         1 GROUP             0       ****    0 ROOT    
