@<TRIPOS>MOLECULE
3R136
137   139    1
SMALL
USER_CHARGES


@<TRIPOS>ATOM
      1 CA         31.2308   23.9304   -4.4207 C.3       0 UNK        -0.1979 
      2 C          30.6249   25.3063   -4.6889 C.2       0 UNK         0.4864 
      3 O          30.7044   25.7796   -5.8212 O.2       0 UNK        -0.5359 
      4 N          30.0231   25.9995   -3.7090 N.am      1 UNK        -0.4318 
      5 CA         29.7795   25.6123   -2.3123 C.3       1 UNK         0.0824 
      6 C6         31.0799   25.3787   -1.4926 C.3       12 UNK        -0.0944 
      7 S7         30.8790   25.7635    0.2814 S.3       12 UNK        -0.2672 
      8 C8         31.2507   24.1430    1.0157 C.3       12 UNK         0.0333 
      9 C9         31.1896   24.1919    2.5331 C.ar      12 UNK        -0.0807 
     10 C10        32.3269   24.5294    3.2707 C.ar      12 UNK        -0.0894 
     11 C11        32.2888   24.5442    4.6680 C.ar      12 UNK        -0.0804 
     12 C12        31.0967   24.2318    5.3287 C.ar      12 UNK        -0.0824 
     13 C13        29.9536   23.8830    4.6012 C.ar      12 UNK        -0.0762 
     14 C14        30.0076   23.8648    3.2027 C.ar      12 UNK        -0.0782 
     15 C15        28.6805   23.4689    5.3290 C.3       12 UNK         0.0230 
     16 S16        27.2134   24.3918    4.7726 S.3       12 UNK        -0.2608 
     17 C17        27.5489   26.0637    5.4237 C.3       12 UNK        -0.0989 
     18 CA         28.0784   27.0477    4.3490 C.3       5 UNK         0.0716 
     19 N          27.2335   27.0662    3.1557 N.am      5 UNK        -0.4135 
     20 C          27.4413   27.7619    2.0313 C.2       4 UNK         0.5031 
     21 O          28.3932   28.5302    1.8558 O.2       4 UNK        -0.5229 
     22 CA         26.4085   27.5248    0.9118 C.3       4 UNK         0.0329 
     23 CB         26.7378   28.2778   -0.3882 C.3       4 UNK        -0.2001 
     24 N          26.2781   26.0975    0.6057 N.am      4 UNK        -0.4303 
     25 C          25.5126   25.2184    1.2665 C.2       3 UNK         0.5044 
     26 O          24.8059   25.5349    2.2247 O.2       3 UNK        -0.5152 
     27 CA         25.5879   23.7412    0.8235 C.3       3 UNK         0.0319 
     28 CB         24.2434   23.0031    0.9950 C.3       3 UNK        -0.2001 
     29 N          26.1354   23.5491   -0.5281 N.am      3 UNK        -0.4354 
     30 C          25.6048   23.9443   -1.6952 C.2       2 UNK         0.4964 
     31 O          24.5209   24.5194   -1.8025 O.2       2 UNK        -0.5047 
     32 CA         26.4794   23.7087   -2.9425 C.3       2 UNK         0.0288 
     33 CB         25.6949   23.8802   -4.2570 C.3       2 UNK        -0.2113 
     34 N          27.6282   24.6193   -2.9551 N.am      2 UNK        -0.4145 
     35 C          28.7236   24.4910   -2.1923 C.2       1 UNK         0.5006 
     36 O          28.9020   23.5375   -1.4327 O.2       1 UNK        -0.5103 
     37 C          28.2055   28.4611    4.9429 C.2       5 UNK         0.5055 
     38 O          27.1820   29.1019    5.1929 O.2       5 UNK        -0.5220 
     39 N          29.4510   28.9142    5.1396 N.am      6 UNK        -0.4450 
     40 CA         29.8405   30.2405    5.6399 C.3       6 UNK         0.0367 
     41 CB         29.2775   30.4957    7.0550 C.3       6 UNK        -0.1929 
     42 C          29.5332   31.4060    4.6728 C.2       6 UNK         0.5070 
     43 O          29.7002   32.5610    5.0682 O.2       6 UNK        -0.5237 
     44 N          29.1062   31.1064    3.4370 N.am      7 UNK        -0.4739 
     45 CA         28.7934   32.0892    2.3992 C.3       7 UNK         0.0276 
     46 CB         27.3250   31.9377    1.9662 C.3       7 UNK        -0.1927 
     47 C          29.7462   31.9404    1.2075 C.2       7 UNK         0.5013 
     48 O          30.3823   32.9221    0.8224 O.2       7 UNK        -0.5193 
     49 N          29.8428   30.7249    0.6493 N.am      8 UNK        -0.4253 
     50 CA         30.7177   30.4182   -0.4896 C.3       8 UNK         0.0242 
     51 CB         30.1173   29.2527   -1.2855 C.3       8 UNK        -0.2000 
     52 C          32.1641   30.0959   -0.0763 C.2       8 UNK         0.4948 
     53 O          33.0544   30.1357   -0.9269 O.2       8 UNK        -0.5275 
     54 N          32.3758   29.7882    1.2059 N.am      9 UNK        -0.4246 
     55 CA         33.6683   29.5335    1.8283 C.3       9 UNK         0.0261 
     56 CB         33.8836   28.0151    1.9452 C.3       9 UNK        -0.1959 
     57 C          33.6425   30.1964    3.2072 C.2       9 UNK         0.5033 
     58 O          32.5695   30.2855    3.8102 O.2       9 UNK        -0.5390 
     59 N          34.8093   30.6295    3.7016 N.am      10 UNK        -0.4215 
     60 CA         34.9873   31.3351    4.9793 C.3       10 UNK         0.0240 
     61 CB         36.3132   32.1186    4.9340 C.3       10 UNK        -0.1982 
     62 C          34.8895   30.4039    6.2080 C.2       10 UNK         0.4970 
     63 O          35.7778   30.4047    7.0622 O.2       10 UNK        -0.4916 
     64 N          33.8126   29.6175    6.2591 N.am      11 UNK        -0.4279 
     65 CA         33.5268   28.5940    7.2755 C.3       11 UNK         0.1003 
     66 C          32.7011   29.1182    8.4859 C.2       11 UNK         0.5709 
     67 N          32.3840   30.4048    8.5702 N.am      11 UNK        -0.7358 
     68 O          32.3555   28.3466    9.3773 O.2       11 UNK        -0.4999 
     69 C69        32.8845   27.3398    6.6244 C.3       12 UNK        -0.0954 
     70 S70        33.9926   26.6092    5.3724 S.3       12 UNK        -0.2268 
     71 C71        33.5545   24.8489    5.4545 C.3       12 UNK         0.0203 
     72 H72        30.5636   23.2837   -3.8548 H         1 UNK         0.0888 
     73 H73        31.4453   23.4243   -5.3617 H         1 UNK         0.0888 
     74 H74        32.1711   24.0288   -3.8799 H         1 UNK         0.0888 
     75 H75        29.6627   26.9112   -3.9546 H         1 UNK         0.3017 
     76 H76        29.2913   26.4873   -1.8851 H         1 UNK         0.0873 
     77 H77        31.4560   24.3627   -1.6194 H         1 UNK         0.0745 
     78 H78        31.8709   26.0348   -1.8594 H         1 UNK         0.0745 
     79 H79        32.2428   23.8209    0.6953 H         1 UNK         0.0705 
     80 H80        30.5486   23.3993    0.6371 H         1 UNK         0.0705 
     81 H81        33.2479   24.7712    2.7575 H         1 UNK         0.1334 
     82 H82        31.0687   24.2323    6.4099 H         1 UNK         0.1417 
     83 H83        29.1295   23.5879    2.6353 H         1 UNK         0.1562 
     84 H84        28.7867   23.5835    6.4089 H         1 UNK         0.0748 
     85 H85        28.5103   22.4064    5.1505 H         1 UNK         0.0748 
     86 H86        28.2524   25.9944    6.2557 H         1 UNK         0.0940 
     87 H87        26.6150   26.4336    5.8527 H         1 UNK         0.0940 
     88 H88        29.0660   26.7080    4.0292 H         1 UNK         0.0703 
     89 H89        26.4125   26.4729    3.1917 H         1 UNK         0.3081 
     90 H90        25.4518   27.9036    1.2778 H         1 UNK         0.0719 
     91 H91        27.6442   27.8929   -0.8503 H         1 UNK         0.0809 
     92 H92        25.9295   28.1810   -1.1133 H         1 UNK         0.0809 
     93 H93        26.8824   29.3434   -0.2088 H         1 UNK         0.0809 
     94 H94        26.8568   25.7424   -0.1391 H         1 UNK         0.2990 
     95 H95        26.3032   23.2718    1.5006 H         1 UNK         0.0690 
     96 H96        24.3218   21.9593    0.6911 H         1 UNK         0.0788 
     97 H97        23.4481   23.4655    0.4098 H         1 UNK         0.0788 
     98 H98        23.9234   23.0115    2.0377 H         1 UNK         0.0788 
     99 H99        27.0688   23.1500   -0.5678 H         1 UNK         0.2993 
    100 H100       26.8411   22.6783   -2.9038 H         1 UNK         0.0949 
    101 H101       25.3238   24.8987   -4.3798 H         1 UNK         0.0767 
    102 H102       26.3150   23.6431   -5.1218 H         1 UNK         0.0767 
    103 H103       24.8323   23.2130   -4.2858 H         1 UNK         0.0767 
    104 H104       27.5521   25.4249   -3.5595 H         1 UNK         0.3013 
    105 H105       30.2198   28.3226    4.8561 H         1 UNK         0.3121 
    106 H106       30.9243   30.2135    5.7396 H         1 UNK         0.0774 
    107 H107       29.7182   31.3919    7.4929 H         1 UNK         0.0815 
    108 H108       28.1975   30.6430    7.0460 H         1 UNK         0.0815 
    109 H109       29.5000   29.6673    7.7274 H         1 UNK         0.0815 
    110 H110       28.9911   30.1320    3.1851 H         1 UNK         0.2987 
    111 H111       28.9192   33.1044    2.7821 H         1 UNK         0.0949 
    112 H112       27.0786   32.6375    1.1665 H         1 UNK         0.0806 
    113 H113       27.1046   30.9346    1.6033 H         1 UNK         0.0806 
    114 H114       26.6495   32.1437    2.7965 H         1 UNK         0.0806 
    115 H115       29.2956   29.9547    1.0293 H         1 UNK         0.3010 
    116 H116       30.7610   31.2856   -1.1521 H         1 UNK         0.0829 
    117 H117       29.1600   29.5304   -1.7257 H         1 UNK         0.0813 
    118 H118       30.7735   28.9486   -2.1023 H         1 UNK         0.0813 
    119 H119       29.9642   28.3853   -0.6453 H         1 UNK         0.0813 
    120 H120       31.6058   29.8500    1.8594 H         1 UNK         0.3038 
    121 H121       34.4703   29.9792    1.2360 H         1 UNK         0.0769 
    122 H122       34.8327   27.7867    2.4313 H         1 UNK         0.0811 
    123 H123       33.8965   27.5409    0.9637 H         1 UNK         0.0811 
    124 H124       33.0932   27.5415    2.5297 H         1 UNK         0.0811 
    125 H125       35.6485   30.4704    3.1622 H         1 UNK         0.3204 
    126 H126       34.1803   32.0645    5.0780 H         1 UNK         0.0748 
    127 H127       36.4521   32.7082    5.8414 H         1 UNK         0.0771 
    128 H128       37.1726   31.4531    4.8420 H         1 UNK         0.0771 
    129 H129       36.3351   32.8143    4.0949 H         1 UNK         0.0771 
    130 H130       33.1498   29.6949    5.4930 H         1 UNK         0.2980 
    131 H131       34.4762   28.2741    7.7088 H         1 UNK         0.0545 
    132 H132       32.6845   31.0531    7.8613 H         1 UNK         0.3459 
    133 H133       31.8615   30.7312    9.3672 H         1 UNK         0.3459 
    134 H134       31.9337   27.5878    6.1513 H         1 UNK         0.0616 
    135 H135       32.6674   26.5843    7.3812 H         1 UNK         0.0616 
    136 H136       34.3786   24.2685    5.0372 H         1 UNK         0.0634 
    137 H137       33.4611   24.5346    6.4950 H         1 UNK         0.0634 
@<TRIPOS>BOND
     1    1    2 1    
     2    1   72 1    
     3    1   73 1    
     4    1   74 1    
     5    2    3 2    
     6    2    4 am   BACKBONE|DICT|INTERRES
     7    4    5 1    
     8    4   75 1    
     9    5    6 1    
    10    5   35 1    
    11    5   76 1    
    12    6    7 1    
    13    6   77 1    
    14    6   78 1    
    15    7    8 1    
    16    8    9 1    
    17    8   79 1    
    18    8   80 1    
    19    9   10 ar   
    20    9   14 ar   
    21   10   11 ar   
    22   10   81 1    
    23   11   12 ar   
    24   11   71 1    
    25   12   13 ar   
    26   12   82 1    
    27   13   14 ar   
    28   13   15 1    
    29   14   83 1    
    30   15   16 1    
    31   15   84 1    
    32   15   85 1    
    33   16   17 1    
    34   17   18 1    
    35   17   86 1    
    36   17   87 1    
    37   18   19 1    
    38   18   37 1    
    39   18   88 1    
    40   19   20 am   BACKBONE|DICT|INTERRES
    41   19   89 1    
    42   20   21 2    
    43   20   22 1    
    44   22   23 1    
    45   22   24 1    
    46   22   90 1    
    47   23   91 1    
    48   23   92 1    
    49   23   93 1    
    50   24   25 am   BACKBONE|DICT|INTERRES
    51   24   94 1    
    52   25   26 2    
    53   25   27 1    
    54   27   28 1    
    55   27   29 1    
    56   27   95 1    
    57   28   96 1    
    58   28   97 1    
    59   28   98 1    
    60   29   30 am   BACKBONE|DICT|INTERRES
    61   29   99 1    
    62   30   31 2    
    63   30   32 1    
    64   32   33 1    
    65   32   34 1    
    66   32  100 1    
    67   33  101 1    
    68   33  102 1    
    69   33  103 1    
    70   34   35 am   BACKBONE|DICT|INTERRES
    71   34  104 1    
    72   35   36 2    
    73   37   38 2    
    74   37   39 am   BACKBONE|DICT|INTERRES
    75   39   40 1    
    76   39  105 1    
    77   40   41 1    
    78   40   42 1    
    79   40  106 1    
    80   41  107 1    
    81   41  108 1    
    82   41  109 1    
    83   42   43 2    
    84   42   44 am   BACKBONE|DICT|INTERRES
    85   44   45 1    
    86   44  110 1    
    87   45   46 1    
    88   45   47 1    
    89   45  111 1    
    90   46  112 1    
    91   46  113 1    
    92   46  114 1    
    93   47   48 2    
    94   47   49 am   BACKBONE|DICT|INTERRES
    95   49   50 1    
    96   49  115 1    
    97   50   51 1    
    98   50   52 1    
    99   50  116 1    
   100   51  117 1    
   101   51  118 1    
   102   51  119 1    
   103   52   53 2    
   104   52   54 am   BACKBONE|DICT|INTERRES
   105   54   55 1    
   106   54  120 1    
   107   55   56 1    
   108   55   57 1    
   109   55  121 1    
   110   56  122 1    
   111   56  123 1    
   112   56  124 1    
   113   57   58 2    
   114   57   59 am   BACKBONE|DICT|INTERRES
   115   59   60 1    
   116   59  125 1    
   117   60   61 1    
   118   60   62 1    
   119   60  126 1    
   120   61  127 1    
   121   61  128 1    
   122   61  129 1    
   123   62   63 2    
   124   62   64 am   BACKBONE|DICT|INTERRES
   125   64   65 1    
   126   64  130 1    
   127   65   66 1    
   128   65   69 1    
   129   65  131 1    
   130   66   67 am   BACKBONE|DICT|INTERRES
   131   66   68 2    
   132   67  132 1    
   133   67  133 1    
   134   69   70 1    
   135   69  134 1    
   136   69  135 1    
   137   70   71 1    
   138   71  136 1    
   139   71  137 1    
@<TRIPOS>SUBSTRUCTURE
     1 UNK         1 GROUP             0       ****    0 ROOT    
