@<TRIPOS>MOLECULE
3R136
137   139    1
SMALL
USER_CHARGES


@<TRIPOS>ATOM
      1 CA         25.4054   20.0678   -1.0152 C.3       0 UNK        -0.1979 
      2 C          26.8776   20.1310   -0.6352 C.2       0 UNK         0.4864 
      3 O          27.3999   19.1808   -0.0506 O.2       0 UNK        -0.5359 
      4 N          27.5480   21.2394   -0.9642 N.am      1 UNK        -0.4318 
      5 CA         28.9676   21.4840   -0.7205 C.3       1 UNK         0.0824 
      6 C6         29.2516   21.8903    0.7519 C.3       12 UNK        -0.0944 
      7 S7         30.9638   21.5100    1.2608 S.3       12 UNK        -0.2672 
      8 C8         30.7616   21.2152    3.0468 C.3       12 UNK         0.0333 
      9 C9         30.5908   22.5219    3.8065 C.ar      12 UNK        -0.0807 
     10 C10        31.7011   23.1647    4.3611 C.ar      12 UNK        -0.0894 
     11 C11        31.5533   24.3777    5.0407 C.ar      12 UNK        -0.0804 
     12 C12        30.2854   24.9582    5.1473 C.ar      12 UNK        -0.0824 
     13 C13        29.1668   24.3242    4.5952 C.ar      12 UNK        -0.0762 
     14 C14        29.3245   23.0954    3.9468 C.ar      12 UNK        -0.0782 
     15 C15        27.7913   24.9700    4.6844 C.3       12 UNK         0.0230 
     16 S16        27.0970   25.2688    3.0272 S.3       12 UNK        -0.2608 
     17 C17        25.8933   26.5939    3.3700 C.3       12 UNK        -0.0989 
     18 CA         26.5140   27.9925    3.1400 C.3       5 UNK         0.0716 
     19 N          27.0415   28.1484    1.7810 N.am      5 UNK        -0.4135 
     20 C          27.6370   29.2371    1.2801 C.2       4 UNK         0.5031 
     21 O          27.7840   30.2922    1.9017 O.2       4 UNK        -0.5229 
     22 CA         28.2328   29.0859   -0.1286 C.3       4 UNK         0.0329 
     23 CB         28.5128   30.4372   -0.8089 C.3       4 UNK        -0.2001 
     24 N          29.4797   28.3256   -0.0435 N.am      4 UNK        -0.4303 
     25 C          29.5470   26.9891   -0.0240 C.2       3 UNK         0.5044 
     26 O          28.5641   26.2539   -0.1434 O.2       3 UNK        -0.5152 
     27 CA         30.9334   26.3743    0.2253 C.3       3 UNK         0.0319 
     28 CB         31.0828   25.9940    1.7067 C.3       3 UNK        -0.2001 
     29 N          31.1414   25.1771   -0.5874 N.am      3 UNK        -0.4354 
     30 C          31.3016   25.1667   -1.9187 C.2       2 UNK         0.4964 
     31 O          31.3791   26.1853   -2.6068 O.2       2 UNK        -0.5047 
     32 CA         31.4040   23.7894   -2.6021 C.3       2 UNK         0.0288 
     33 CB         32.8757   23.4191   -2.8501 C.3       2 UNK        -0.2113 
     34 N          30.7642   22.7216   -1.8283 N.am      2 UNK        -0.4145 
     35 C          29.4397   22.5576   -1.7168 C.2       1 UNK         0.5006 
     36 O          28.6098   23.2229   -2.3451 O.2       1 UNK        -0.5103 
     37 C          25.5220   29.1107    3.5138 C.2       5 UNK         0.5055 
     38 O          24.5299   29.3060    2.8086 O.2       5 UNK        -0.5220 
     39 N          25.8360   29.8221    4.6068 N.am      6 UNK        -0.4450 
     40 CA         25.1217   30.9783    5.1644 C.3       6 UNK         0.0367 
     41 CB         23.6872   30.5960    5.5902 C.3       6 UNK        -0.1929 
     42 C          25.1547   32.2466    4.2832 C.2       6 UNK         0.5070 
     43 O          24.3965   33.1780    4.5587 O.2       6 UNK        -0.5237 
     44 N          26.0314   32.2893    3.2697 N.am      7 UNK        -0.4739 
     45 CA         26.2161   33.4357    2.3768 C.3       7 UNK         0.0276 
     46 CB         25.6984   33.0864    0.9714 C.3       7 UNK        -0.1927 
     47 C          27.6844   33.8796    2.3356 C.2       7 UNK         0.5013 
     48 O          27.9575   35.0646    2.5315 O.2       7 UNK        -0.5193 
     49 N          28.6019   32.9345    2.0961 N.am      8 UNK        -0.4253 
     50 CA         30.0421   33.1641    1.9829 C.3       8 UNK         0.0242 
     51 CB         30.3824   33.8616    0.6474 C.3       8 UNK        -0.2000 
     52 C          30.7835   31.8328    2.1660 C.2       8 UNK         0.4948 
     53 O          31.5147   31.3963    1.2734 O.2       8 UNK        -0.5275 
     54 N          30.5736   31.1864    3.3199 N.am      9 UNK        -0.4246 
     55 CA         31.2042   29.9171    3.6941 C.3       9 UNK         0.0261 
     56 CB         30.3553   29.2292    4.7775 C.3       9 UNK        -0.1959 
     57 C          32.6679   30.1213    4.1300 C.2       9 UNK         0.5033 
     58 O          33.0102   29.8958    5.2931 O.2       9 UNK        -0.5390 
     59 N          33.5091   30.5659    3.1885 N.am      10 UNK        -0.4215 
     60 CA         34.9360   30.8541    3.3609 C.3       10 UNK         0.0240 
     61 CB         35.3873   31.7998    2.2316 C.3       10 UNK        -0.1982 
     62 C          35.7918   29.5729    3.4445 C.2       10 UNK         0.4970 
     63 O          36.7170   29.3906    2.6508 O.2       10 UNK        -0.4916 
     64 N          35.4535   28.7024    4.4000 N.am      11 UNK        -0.4279 
     65 CA         36.1142   27.4153    4.6615 C.3       11 UNK         0.1003 
     66 C          37.4845   27.5287    5.3916 C.2       11 UNK         0.5709 
     67 N          37.8741   28.6886    5.9081 N.am      11 UNK        -0.7358 
     68 O          38.2142   26.5441    5.4824 O.2       11 UNK        -0.4999 
     69 C69        35.1649   26.4397    5.4040 C.3       12 UNK        -0.0954 
     70 S70        33.6482   26.0813    4.4589 S.3       12 UNK        -0.2268 
     71 C71        32.7658   25.0498    5.6652 C.3       12 UNK         0.0203 
     72 H72        24.7932   19.9373   -0.1233 H         1 UNK         0.0888 
     73 H73        25.0764   20.9749   -1.5221 H         1 UNK         0.0888 
     74 H74        25.2250   19.2234   -1.6798 H         1 UNK         0.0888 
     75 H75        27.1010   21.9817   -1.4903 H         1 UNK         0.3017 
     76 H76        29.5027   20.5613   -0.9574 H         1 UNK         0.0873 
     77 H77        29.0400   22.9475    0.9290 H         1 UNK         0.0745 
     78 H78        28.5838   21.3409    1.4165 H         1 UNK         0.0745 
     79 H79        31.6412   20.6846    3.4144 H         1 UNK         0.0705 
     80 H80        29.9134   20.5526    3.2256 H         1 UNK         0.0705 
     81 H81        32.6837   22.7242    4.2598 H         1 UNK         0.1334 
     82 H82        30.1727   25.9040    5.6588 H         1 UNK         0.1417 
     83 H83        28.4607   22.6041    3.5209 H         1 UNK         0.1562 
     84 H84        27.8509   25.9143    5.2277 H         1 UNK         0.0748 
     85 H85        27.1179   24.3245    5.2499 H         1 UNK         0.0748 
     86 H86        25.5240   26.4899    4.3924 H         1 UNK         0.0940 
     87 H87        25.0288   26.4474    2.7192 H         1 UNK         0.0940 
     88 H88        27.3748   28.0736    3.8042 H         1 UNK         0.0703 
     89 H89        27.0374   27.3103    1.2130 H         1 UNK         0.3081 
     90 H90        27.5107   28.5485   -0.7475 H         1 UNK         0.0719 
     91 H91        29.2408   31.0279   -0.2556 H         1 UNK         0.0809 
     92 H92        28.8992   30.2970   -1.8184 H         1 UNK         0.0809 
     93 H93        27.6022   31.0298   -0.8933 H         1 UNK         0.0809 
     94 H94        30.3232   28.8648    0.0941 H         1 UNK         0.2990 
     95 H95        31.7043   27.1039   -0.0316 H         1 UNK         0.0690 
     96 H96        32.0639   25.5656    1.9108 H         1 UNK         0.0788 
     97 H97        30.3326   25.2624    2.0104 H         1 UNK         0.0788 
     98 H98        30.9665   26.8625    2.3552 H         1 UNK         0.0788 
     99 H99        31.0660   24.2928   -0.1077 H         1 UNK         0.2993 
    100 H100       30.9013   23.8660   -3.5690 H         1 UNK         0.0949 
    101 H101       33.4311   23.3207   -1.9164 H         1 UNK         0.0767 
    102 H102       32.9618   22.4782   -3.3940 H         1 UNK         0.0767 
    103 H103       33.3747   24.1837   -3.4474 H         1 UNK         0.0767 
    104 H104       31.3707   22.1353   -1.2704 H         1 UNK         0.3013 
    105 H105       26.6844   29.5768    5.0985 H         1 UNK         0.3121 
    106 H106       25.6642   31.2460    6.0724 H         1 UNK         0.0774 
    107 H107       23.2206   31.3995    6.1613 H         1 UNK         0.0815 
    108 H108       23.0467   30.3994    4.7300 H         1 UNK         0.0815 
    109 H109       23.6828   29.7086    6.2230 H         1 UNK         0.0815 
    110 H110       26.6131   31.4785    3.0873 H         1 UNK         0.2987 
    111 H111       25.6441   34.2945    2.7352 H         1 UNK         0.0949 
    112 H112       25.8804   33.9023    0.2706 H         1 UNK         0.0806 
    113 H113       26.1802   32.1947    0.5723 H         1 UNK         0.0806 
    114 H114       24.6239   32.9031    0.9848 H         1 UNK         0.0806 
    115 H115       28.3000   31.9668    1.9702 H         1 UNK         0.3010 
    116 H116       30.3593   33.8158    2.7998 H         1 UNK         0.0829 
    117 H117       29.9217   34.8470    0.5805 H         1 UNK         0.0813 
    118 H118       31.4588   34.0058    0.5449 H         1 UNK         0.0813 
    119 H119       30.0477   33.2788   -0.2106 H         1 UNK         0.0813 
    120 H120       29.9735   31.6141    4.0103 H         1 UNK         0.3038 
    121 H121       31.2139   29.2614    2.8211 H         1 UNK         0.0769 
    122 H122       30.2945   29.8277    5.6872 H         1 UNK         0.0811 
    123 H123       30.7824   28.2628    5.0487 H         1 UNK         0.0811 
    124 H124       29.3421   29.0492    4.4244 H         1 UNK         0.0811 
    125 H125       33.1115   30.7526    2.2719 H         1 UNK         0.3204 
    126 H126       35.0658   31.3844    4.3067 H         1 UNK         0.0748 
    127 H127       36.4353   32.0791    2.3487 H         1 UNK         0.0771 
    128 H128       35.2791   31.3365    1.2500 H         1 UNK         0.0771 
    129 H129       34.8067   32.7227    2.2316 H         1 UNK         0.0771 
    130 H130       34.6548   28.9304    4.9851 H         1 UNK         0.2980 
    131 H131       36.3411   26.9675    3.6921 H         1 UNK         0.0545 
    132 H132       38.7663   28.7473    6.3733 H         1 UNK         0.3459 
    133 H133       37.2836   29.5016    5.8416 H         1 UNK         0.3459 
    134 H134       34.8855   26.8470    6.3775 H         1 UNK         0.0616 
    135 H135       35.6650   25.4885    5.5964 H         1 UNK         0.0616 
    136 H136       32.4663   25.6664    6.5141 H         1 UNK         0.0634 
    137 H137       33.4432   24.2899    6.0581 H         1 UNK         0.0634 
@<TRIPOS>BOND
     1    1    2 1    
     2    1   72 1    
     3    1   73 1    
     4    1   74 1    
     5    2    3 2    
     6    2    4 am   BACKBONE|DICT|INTERRES
     7    4    5 1    
     8    4   75 1    
     9    5    6 1    
    10    5   35 1    
    11    5   76 1    
    12    6    7 1    
    13    6   77 1    
    14    6   78 1    
    15    7    8 1    
    16    8    9 1    
    17    8   79 1    
    18    8   80 1    
    19    9   10 ar   
    20    9   14 ar   
    21   10   11 ar   
    22   10   81 1    
    23   11   12 ar   
    24   11   71 1    
    25   12   13 ar   
    26   12   82 1    
    27   13   14 ar   
    28   13   15 1    
    29   14   83 1    
    30   15   16 1    
    31   15   84 1    
    32   15   85 1    
    33   16   17 1    
    34   17   18 1    
    35   17   86 1    
    36   17   87 1    
    37   18   19 1    
    38   18   37 1    
    39   18   88 1    
    40   19   20 am   BACKBONE|DICT|INTERRES
    41   19   89 1    
    42   20   21 2    
    43   20   22 1    
    44   22   23 1    
    45   22   24 1    
    46   22   90 1    
    47   23   91 1    
    48   23   92 1    
    49   23   93 1    
    50   24   25 am   BACKBONE|DICT|INTERRES
    51   24   94 1    
    52   25   26 2    
    53   25   27 1    
    54   27   28 1    
    55   27   29 1    
    56   27   95 1    
    57   28   96 1    
    58   28   97 1    
    59   28   98 1    
    60   29   30 am   BACKBONE|DICT|INTERRES
    61   29   99 1    
    62   30   31 2    
    63   30   32 1    
    64   32   33 1    
    65   32   34 1    
    66   32  100 1    
    67   33  101 1    
    68   33  102 1    
    69   33  103 1    
    70   34   35 am   BACKBONE|DICT|INTERRES
    71   34  104 1    
    72   35   36 2    
    73   37   38 2    
    74   37   39 am   BACKBONE|DICT|INTERRES
    75   39   40 1    
    76   39  105 1    
    77   40   41 1    
    78   40   42 1    
    79   40  106 1    
    80   41  107 1    
    81   41  108 1    
    82   41  109 1    
    83   42   43 2    
    84   42   44 am   BACKBONE|DICT|INTERRES
    85   44   45 1    
    86   44  110 1    
    87   45   46 1    
    88   45   47 1    
    89   45  111 1    
    90   46  112 1    
    91   46  113 1    
    92   46  114 1    
    93   47   48 2    
    94   47   49 am   BACKBONE|DICT|INTERRES
    95   49   50 1    
    96   49  115 1    
    97   50   51 1    
    98   50   52 1    
    99   50  116 1    
   100   51  117 1    
   101   51  118 1    
   102   51  119 1    
   103   52   53 2    
   104   52   54 am   BACKBONE|DICT|INTERRES
   105   54   55 1    
   106   54  120 1    
   107   55   56 1    
   108   55   57 1    
   109   55  121 1    
   110   56  122 1    
   111   56  123 1    
   112   56  124 1    
   113   57   58 2    
   114   57   59 am   BACKBONE|DICT|INTERRES
   115   59   60 1    
   116   59  125 1    
   117   60   61 1    
   118   60   62 1    
   119   60  126 1    
   120   61  127 1    
   121   61  128 1    
   122   61  129 1    
   123   62   63 2    
   124   62   64 am   BACKBONE|DICT|INTERRES
   125   64   65 1    
   126   64  130 1    
   127   65   66 1    
   128   65   69 1    
   129   65  131 1    
   130   66   67 am   BACKBONE|DICT|INTERRES
   131   66   68 2    
   132   67  132 1    
   133   67  133 1    
   134   69   70 1    
   135   69  134 1    
   136   69  135 1    
   137   70   71 1    
   138   71  136 1    
   139   71  137 1    
@<TRIPOS>SUBSTRUCTURE
     1 UNK         1 GROUP             0       ****    0 ROOT    
