@<TRIPOS>MOLECULE
3R136
137   139    1
SMALL
USER_CHARGES


@<TRIPOS>ATOM
      1 CA         25.7931   26.5667    6.0774 C.3       0 UNK        -0.1979 
      2 C          26.0583   25.7752    4.8059 C.2       0 UNK         0.4864 
      3 O          25.3749   24.7841    4.5459 O.2       0 UNK        -0.5359 
      4 N          27.0258   26.2132    3.9912 N.am      1 UNK        -0.4318 
      5 CA         27.4866   25.5551    2.7577 C.3       1 UNK         0.0824 
      6 C6         28.9495   25.9483    2.4219 C.3       12 UNK        -0.0944 
      7 S7         30.1086   25.5209    3.7653 S.3       12 UNK        -0.2672 
      8 C8         31.2457   24.3464    2.9621 C.3       12 UNK         0.0333 
      9 C9         32.1884   25.0449    1.9916 C.ar      12 UNK        -0.0807 
     10 C10        33.3302   25.6987    2.4655 C.ar      12 UNK        -0.0894 
     11 C11        34.1893   26.3585    1.5822 C.ar      12 UNK        -0.0804 
     12 C12        33.9126   26.3430    0.2118 C.ar      12 UNK        -0.0824 
     13 C13        32.7774   25.6879   -0.2753 C.ar      12 UNK        -0.0762 
     14 C14        31.9237   25.0347    0.6191 C.ar      12 UNK        -0.0782 
     15 C15        32.4691   25.6784   -1.7666 C.3       12 UNK         0.0230 
     16 S16        32.2168   27.3447   -2.4672 S.3       12 UNK        -0.2608 
     17 C17        30.9426   28.0953   -1.3933 C.3       12 UNK        -0.0989 
     18 CA         29.5314   28.0861   -2.0333 C.3       5 UNK         0.0716 
     19 N          29.0047   26.7201   -2.1370 N.am      5 UNK        -0.4135 
     20 C          27.9238   26.3401   -2.8303 C.2       4 UNK         0.5031 
     21 O          27.1488   27.1231   -3.3802 O.2       4 UNK        -0.5229 
     22 CA         27.6824   24.8290   -2.9701 C.3       4 UNK         0.0329 
     23 CB         28.9176   23.9504   -2.6775 C.3       4 UNK        -0.2001 
     24 N          26.5803   24.4227   -2.1043 N.am      4 UNK        -0.4303 
     25 C          25.6578   23.5034   -2.4238 C.2       3 UNK         0.5044 
     26 O          25.6276   22.9181   -3.5077 O.2       3 UNK        -0.5152 
     27 CA         24.5968   23.1412   -1.3640 C.3       3 UNK         0.0319 
     28 CB         24.8707   21.7416   -0.7883 C.3       3 UNK        -0.2001 
     29 N          24.5159   24.0959   -0.2579 N.am      3 UNK        -0.4354 
     30 C          24.0119   25.3334   -0.3491 C.2       2 UNK         0.4964 
     31 O          23.4698   25.7776   -1.3612 O.2       2 UNK        -0.5047 
     32 CA         24.1530   26.2403    0.8858 C.3       2 UNK         0.0288 
     33 CB         22.8238   26.3162    1.6540 C.3       2 UNK        -0.2113 
     34 N          25.2200   25.8607    1.8214 N.am      2 UNK        -0.4145 
     35 C          26.5344   25.8017    1.5610 C.2       1 UNK         0.5006 
     36 O          26.9973   25.9534    0.4268 O.2       1 UNK        -0.5103 
     37 C          28.6126   29.0817   -1.2909 C.2       5 UNK         0.5055 
     38 O          28.7509   30.2841   -1.5252 O.2       5 UNK        -0.5220 
     39 N          27.7268   28.5844   -0.4135 N.am      6 UNK        -0.4450 
     40 CA         26.8981   29.3287    0.5462 C.3       6 UNK         0.0367 
     41 CB         25.9939   30.3649   -0.1566 C.3       6 UNK        -0.1929 
     42 C          27.7206   29.9446    1.6961 C.2       6 UNK         0.5070 
     43 O          28.9528   29.9099    1.6773 O.2       6 UNK        -0.5237 
     44 N          27.0012   30.4752    2.6959 N.am      7 UNK        -0.4739 
     45 CA         27.5116   31.0411    3.9530 C.3       7 UNK         0.0276 
     46 CB         28.3706   32.2981    3.6816 C.3       7 UNK        -0.1927 
     47 C          28.2214   29.9921    4.8376 C.2       7 UNK         0.5013 
     48 O          28.0037   28.7898    4.6637 O.2       7 UNK        -0.5193 
     49 N          29.0087   30.4651    5.8122 N.am      8 UNK        -0.4253 
     50 CA         29.7820   29.6350    6.7371 C.3       8 UNK         0.0242 
     51 CB         30.2316   30.4998    7.9273 C.3       8 UNK        -0.2000 
     52 C          31.0003   28.9966    6.0500 C.2       8 UNK         0.4948 
     53 O          31.5472   29.5702    5.1061 O.2       8 UNK        -0.5275 
     54 N          31.4365   27.8474    6.5823 N.am      9 UNK        -0.4246 
     55 CA         32.5575   27.0566    6.0623 C.3       9 UNK         0.0261 
     56 CB         32.4857   25.6374    6.6519 C.3       9 UNK        -0.1959 
     57 C          33.9505   27.6659    6.3070 C.2       9 UNK         0.5033 
     58 O          34.9266   27.1733    5.7381 O.2       9 UNK        -0.5390 
     59 N          34.0386   28.7042    7.1489 N.am      10 UNK        -0.4215 
     60 CA         35.2654   29.4219    7.5024 C.3       10 UNK         0.0240 
     61 CB         35.0351   30.1680    8.8308 C.3       10 UNK        -0.1982 
     62 C          35.7422   30.3557    6.3706 C.2       10 UNK         0.4970 
     63 O          35.7862   31.5741    6.5530 O.2       10 UNK        -0.4916 
     64 N          36.0736   29.7656    5.2172 N.am      11 UNK        -0.4279 
     65 CA         36.6257   30.4441    4.0365 C.3       11 UNK         0.1003 
     66 C          38.0152   31.0844    4.3085 C.2       11 UNK         0.5709 
     67 N          38.3081   32.2189    3.6872 N.am      11 UNK        -0.7358 
     68 O          38.8421   30.5422    5.0405 O.2       11 UNK        -0.4999 
     69 C69        36.6990   29.4919    2.8149 C.3       12 UNK        -0.0954 
     70 S70        35.0619   28.8691    2.3073 S.3       12 UNK        -0.2268 
     71 C71        35.4110   27.0959    2.1066 C.3       12 UNK         0.0203 
     72 H72        25.6626   25.8902    6.9215 H         1 UNK         0.0888 
     73 H73        26.6163   27.2402    6.3137 H         1 UNK         0.0888 
     74 H74        24.8850   27.1588    5.9693 H         1 UNK         0.0888 
     75 H75        27.5133   27.0768    4.2317 H         1 UNK         0.3017 
     76 H76        27.4721   24.4766    2.9285 H         1 UNK         0.0873 
     77 H77        29.0268   27.0216    2.2367 H         1 UNK         0.0745 
     78 H78        29.2752   25.4572    1.5052 H         1 UNK         0.0745 
     79 H79        30.6721   23.5667    2.4585 H         1 UNK         0.0705 
     80 H80        31.8295   23.8434    3.7345 H         1 UNK         0.0705 
     81 H81        33.5488   25.7007    3.5238 H         1 UNK         0.1334 
     82 H82        34.5720   26.8556   -0.4757 H         1 UNK         0.1417 
     83 H83        31.0496   24.5179    0.2488 H         1 UNK         0.1562 
     84 H84        31.5917   25.0689   -1.9780 H         1 UNK         0.0748 
     85 H85        33.2977   25.2027   -2.2930 H         1 UNK         0.0748 
     86 H86        31.2718   29.1207   -1.2100 H         1 UNK         0.0940 
     87 H87        30.9256   27.6205   -0.4111 H         1 UNK         0.0940 
     88 H88        29.6212   28.4667   -3.0533 H         1 UNK         0.0703 
     89 H89        29.5675   26.0008   -1.7129 H         1 UNK         0.3081 
     90 H90        27.4041   24.6730   -4.0147 H         1 UNK         0.0719 
     91 H91        28.7114   22.9052   -2.9090 H         1 UNK         0.0809 
     92 H92        29.7664   24.2460   -3.2955 H         1 UNK         0.0809 
     93 H93        29.2192   23.9961   -1.6306 H         1 UNK         0.0809 
     94 H94        26.5263   24.8935   -1.2060 H         1 UNK         0.2990 
     95 H95        23.6284   23.1196   -1.8685 H         1 UNK         0.0690 
     96 H96        25.8280   21.6996   -0.2670 H         1 UNK         0.0788 
     97 H97        24.8982   20.9915   -1.5800 H         1 UNK         0.0788 
     98 H98        24.0915   21.4402   -0.0878 H         1 UNK         0.0788 
     99 H99        24.9284   23.8129    0.6189 H         1 UNK         0.2993 
    100 H100       24.3846   27.2383    0.5102 H         1 UNK         0.0949 
    101 H101       22.5522   25.3514    2.0845 H         1 UNK         0.0767 
    102 H102       22.8748   27.0435    2.4646 H         1 UNK         0.0767 
    103 H103       22.0078   26.6227    0.9976 H         1 UNK         0.0767 
    104 H104       24.9388   25.6493    2.7736 H         1 UNK         0.3013 
    105 H105       27.6882   27.5750   -0.3015 H         1 UNK         0.3121 
    106 H106       26.2442   28.5908    1.0066 H         1 UNK         0.0774 
    107 H107       26.5588   31.2278   -0.5099 H         1 UNK         0.0815 
    108 H108       25.2255   30.7417    0.5187 H         1 UNK         0.0815 
    109 H109       25.4804   29.9264   -1.0124 H         1 UNK         0.0815 
    110 H110       25.9942   30.4234    2.6313 H         1 UNK         0.2987 
    111 H111       26.6317   31.3580    4.5151 H         1 UNK         0.0949 
    112 H112       29.3461   32.0409    3.2665 H         1 UNK         0.0806 
    113 H113       27.8776   32.9685    2.9776 H         1 UNK         0.0806 
    114 H114       28.5420   32.8715    4.5930 H         1 UNK         0.0806 
    115 H115       29.1591   31.4612    5.8683 H         1 UNK         0.3010 
    116 H116       29.1313   28.8390    7.1067 H         1 UNK         0.0829 
    117 H117       30.7704   29.9049    8.6659 H         1 UNK         0.0813 
    118 H118       30.8945   31.3073    7.6128 H         1 UNK         0.0813 
    119 H119       29.3781   30.9465    8.4379 H         1 UNK         0.0813 
    120 H120       30.9408   27.4562    7.3709 H         1 UNK         0.3038 
    121 H121       32.4299   26.9902    4.9813 H         1 UNK         0.0769 
    122 H122       32.6224   25.6424    7.7339 H         1 UNK         0.0811 
    123 H123       33.2622   24.9989    6.2281 H         1 UNK         0.0811 
    124 H124       31.5288   25.1623    6.4362 H         1 UNK         0.0811 
    125 H125       33.1804   29.0589    7.5426 H         1 UNK         0.3204 
    126 H126       36.0587   28.6897    7.6686 H         1 UNK         0.0748 
    127 H127       34.7672   29.4787    9.6319 H         1 UNK         0.0771 
    128 H128       35.9386   30.6915    9.1466 H         1 UNK         0.0771 
    129 H129       34.2400   30.9102    8.7464 H         1 UNK         0.0771 
    130 H130       35.9521   28.7603    5.1489 H         1 UNK         0.2980 
    131 H131       35.9352   31.2533    3.7903 H         1 UNK         0.0545 
    132 H132       39.2108   32.6414    3.8388 H         1 UNK         0.3459 
    133 H133       37.6432   32.6649    3.0744 H         1 UNK         0.3459 
    134 H134       37.1290   30.0064    1.9535 H         1 UNK         0.0616 
    135 H135       37.3626   28.6523    3.0307 H         1 UNK         0.0616 
    136 H136       36.2462   26.9657    1.4167 H         1 UNK         0.0634 
    137 H137       35.7276   26.6785    3.0639 H         1 UNK         0.0634 
@<TRIPOS>BOND
     1    1    2 1    
     2    1   72 1    
     3    1   73 1    
     4    1   74 1    
     5    2    3 2    
     6    2    4 am   BACKBONE|DICT|INTERRES
     7    4    5 1    
     8    4   75 1    
     9    5    6 1    
    10    5   35 1    
    11    5   76 1    
    12    6    7 1    
    13    6   77 1    
    14    6   78 1    
    15    7    8 1    
    16    8    9 1    
    17    8   79 1    
    18    8   80 1    
    19    9   10 ar   
    20    9   14 ar   
    21   10   11 ar   
    22   10   81 1    
    23   11   12 ar   
    24   11   71 1    
    25   12   13 ar   
    26   12   82 1    
    27   13   14 ar   
    28   13   15 1    
    29   14   83 1    
    30   15   16 1    
    31   15   84 1    
    32   15   85 1    
    33   16   17 1    
    34   17   18 1    
    35   17   86 1    
    36   17   87 1    
    37   18   19 1    
    38   18   37 1    
    39   18   88 1    
    40   19   20 am   BACKBONE|DICT|INTERRES
    41   19   89 1    
    42   20   21 2    
    43   20   22 1    
    44   22   23 1    
    45   22   24 1    
    46   22   90 1    
    47   23   91 1    
    48   23   92 1    
    49   23   93 1    
    50   24   25 am   BACKBONE|DICT|INTERRES
    51   24   94 1    
    52   25   26 2    
    53   25   27 1    
    54   27   28 1    
    55   27   29 1    
    56   27   95 1    
    57   28   96 1    
    58   28   97 1    
    59   28   98 1    
    60   29   30 am   BACKBONE|DICT|INTERRES
    61   29   99 1    
    62   30   31 2    
    63   30   32 1    
    64   32   33 1    
    65   32   34 1    
    66   32  100 1    
    67   33  101 1    
    68   33  102 1    
    69   33  103 1    
    70   34   35 am   BACKBONE|DICT|INTERRES
    71   34  104 1    
    72   35   36 2    
    73   37   38 2    
    74   37   39 am   BACKBONE|DICT|INTERRES
    75   39   40 1    
    76   39  105 1    
    77   40   41 1    
    78   40   42 1    
    79   40  106 1    
    80   41  107 1    
    81   41  108 1    
    82   41  109 1    
    83   42   43 2    
    84   42   44 am   BACKBONE|DICT|INTERRES
    85   44   45 1    
    86   44  110 1    
    87   45   46 1    
    88   45   47 1    
    89   45  111 1    
    90   46  112 1    
    91   46  113 1    
    92   46  114 1    
    93   47   48 2    
    94   47   49 am   BACKBONE|DICT|INTERRES
    95   49   50 1    
    96   49  115 1    
    97   50   51 1    
    98   50   52 1    
    99   50  116 1    
   100   51  117 1    
   101   51  118 1    
   102   51  119 1    
   103   52   53 2    
   104   52   54 am   BACKBONE|DICT|INTERRES
   105   54   55 1    
   106   54  120 1    
   107   55   56 1    
   108   55   57 1    
   109   55  121 1    
   110   56  122 1    
   111   56  123 1    
   112   56  124 1    
   113   57   58 2    
   114   57   59 am   BACKBONE|DICT|INTERRES
   115   59   60 1    
   116   59  125 1    
   117   60   61 1    
   118   60   62 1    
   119   60  126 1    
   120   61  127 1    
   121   61  128 1    
   122   61  129 1    
   123   62   63 2    
   124   62   64 am   BACKBONE|DICT|INTERRES
   125   64   65 1    
   126   64  130 1    
   127   65   66 1    
   128   65   69 1    
   129   65  131 1    
   130   66   67 am   BACKBONE|DICT|INTERRES
   131   66   68 2    
   132   67  132 1    
   133   67  133 1    
   134   69   70 1    
   135   69  134 1    
   136   69  135 1    
   137   70   71 1    
   138   71  136 1    
   139   71  137 1    
@<TRIPOS>SUBSTRUCTURE
     1 UNK         1 GROUP             0       ****    0 ROOT    
