@<TRIPOS>MOLECULE
3R136
137   139    1
SMALL
USER_CHARGES


@<TRIPOS>ATOM
      1 CA         32.1050   26.5685   -3.8382 C.3       0 UNK        -0.1979 
      2 C          30.7372   26.9779   -3.3122 C.2       0 UNK         0.4864 
      3 O          29.9918   27.6601   -4.0163 O.2       0 UNK        -0.5359 
      4 N          30.4078   26.5686   -2.0792 N.am      1 UNK        -0.4318 
      5 CA         29.1381   26.8670   -1.4014 C.3       1 UNK         0.0824 
      6 C6         29.2058   26.5574    0.1136 C.3       12 UNK        -0.0944 
      7 S7         30.4540   27.5929    0.9525 S.3       12 UNK        -0.2672 
      8 C8         31.7732   26.4068    1.3556 C.3       12 UNK         0.0333 
      9 C9         31.5948   25.8356    2.7535 C.ar      12 UNK        -0.0807 
     10 C10        32.3123   26.3690    3.8277 C.ar      12 UNK        -0.0894 
     11 C11        32.1495   25.8538    5.1168 C.ar      12 UNK        -0.0804 
     12 C12        31.2481   24.8065    5.3307 C.ar      12 UNK        -0.0824 
     13 C13        30.5131   24.2741    4.2664 C.ar      12 UNK        -0.0762 
     14 C14        30.7131   24.7759    2.9765 C.ar      12 UNK        -0.0782 
     15 C15        29.5006   23.1570    4.4948 C.3       12 UNK         0.0230 
     16 S16        28.2501   23.5529    5.7676 S.3       12 UNK        -0.2608 
     17 C17        27.5913   25.1908    5.2841 C.3       12 UNK        -0.0989 
     18 CA         27.2481   25.3621    3.7825 C.3       5 UNK         0.0716 
     19 N          26.3073   24.3508    3.3022 N.am      5 UNK        -0.4135 
     20 C          26.2900   23.8807    2.0502 C.2       4 UNK         0.5031 
     21 O          27.1328   24.1769    1.1994 O.2       4 UNK        -0.5229 
     22 CA         25.1705   22.8894    1.6726 C.3       4 UNK         0.0329 
     23 CB         24.0196   22.7903    2.7012 C.3       4 UNK        -0.2001 
     24 N          24.6625   23.1718    0.3260 N.am      4 UNK        -0.4303 
     25 C          24.0467   24.2881   -0.0887 C.2       3 UNK         0.5044 
     26 O          23.6961   25.2065    0.6544 O.2       3 UNK        -0.5152 
     27 CA         23.8268   24.4013   -1.6072 C.3       3 UNK         0.0319 
     28 CB         22.8870   25.5602   -1.9887 C.3       3 UNK        -0.2001 
     29 N          25.1048   24.5872   -2.2940 N.am      3 UNK        -0.4354 
     30 C          25.9818   23.6230   -2.5936 C.2       2 UNK         0.4964 
     31 O          25.8006   22.4335   -2.3277 O.2       2 UNK        -0.5047 
     32 CA         27.2705   24.0486   -3.3193 C.3       2 UNK         0.0288 
     33 CB         26.9661   24.6618   -4.7017 C.3       2 UNK        -0.2113 
     34 N          28.1618   24.9184   -2.5381 N.am      2 UNK        -0.4145 
     35 C          27.9391   26.1576   -2.0678 C.2       1 UNK         0.5006 
     36 O          26.8694   26.7604   -2.1778 O.2       1 UNK        -0.5103 
     37 C          26.6912   26.7699    3.5109 C.2       5 UNK         0.5055 
     38 O          25.4759   26.9744    3.5670 O.2       5 UNK        -0.5220 
     39 N          27.5970   27.7206    3.2699 N.am      6 UNK        -0.4450 
     40 CA         27.3209   29.1416    3.0944 C.3       6 UNK         0.0367 
     41 CB         27.0797   29.4477    1.6041 C.3       6 UNK        -0.1929 
     42 C          28.5179   29.9244    3.6470 C.2       6 UNK         0.5070 
     43 O          29.5538   29.3295    3.9526 O.2       6 UNK        -0.5237 
     44 N          28.3655   31.2474    3.7663 N.am      7 UNK        -0.4739 
     45 CA         29.3998   32.1603    4.2583 C.3       7 UNK         0.0276 
     46 CB         28.7228   33.4267    4.8156 C.3       7 UNK        -0.1927 
     47 C          30.4464   32.4754    3.1708 C.2       7 UNK         0.5013 
     48 O          30.5296   33.6156    2.7087 O.2       7 UNK        -0.5193 
     49 N          31.2097   31.4569    2.7641 N.am      8 UNK        -0.4253 
     50 CA         32.2900   31.5425    1.7859 C.3       8 UNK         0.0242 
     51 CB         31.7353   31.2734    0.3753 C.3       8 UNK        -0.2000 
     52 C          33.3975   30.5506    2.1606 C.2       8 UNK         0.4948 
     53 O          33.1836   29.6718    3.0003 O.2       8 UNK        -0.5275 
     54 N          34.5738   30.7230    1.5397 N.am      9 UNK        -0.4246 
     55 CA         35.8112   29.9741    1.7929 C.3       9 UNK         0.0261 
     56 CB         35.6747   28.5147    1.2970 C.3       9 UNK        -0.1959 
     57 C          36.2405   30.1114    3.2680 C.2       9 UNK         0.5033 
     58 O          36.3063   31.2370    3.7678 O.2       9 UNK        -0.5390 
     59 N          36.4782   28.9855    3.9546 N.am      10 UNK        -0.4215 
     60 CA         36.7993   28.9227    5.3853 C.3       10 UNK         0.0240 
     61 CB         37.1828   27.4789    5.7505 C.3       10 UNK        -0.1982 
     62 C          35.6760   29.4336    6.3112 C.2       10 UNK         0.4970 
     63 O          35.9655   29.7948    7.4524 O.2       10 UNK        -0.4916 
     64 N          34.4346   29.4611    5.8111 N.am      11 UNK        -0.4279 
     65 CA         33.2559   30.0121    6.4901 C.3       11 UNK         0.1003 
     66 C          32.9912   31.5034    6.1248 C.2       11 UNK         0.5709 
     67 N          33.8164   32.1628    5.3173 N.am      11 UNK        -0.7358 
     68 O          32.0308   32.0926    6.6135 O.2       11 UNK        -0.4999 
     69 C69        32.0149   29.1056    6.2561 C.3       12 UNK        -0.0954 
     70 S70        32.0490   27.6007    7.2901 S.3       12 UNK        -0.2268 
     71 C71        32.9706   26.4034    6.2728 C.3       12 UNK         0.0203 
     72 H72        31.9955   25.9748   -4.7454 H         1 UNK         0.0888 
     73 H73        32.6941   27.4532   -4.0786 H         1 UNK         0.0888 
     74 H74        32.6626   25.9778   -3.1116 H         1 UNK         0.0888 
     75 H75        31.0755   26.0352   -1.5429 H         1 UNK         0.3017 
     76 H76        28.9589   27.9393   -1.5112 H         1 UNK         0.0873 
     77 H77        29.4114   25.5003    0.2838 H         1 UNK         0.0745 
     78 H78        28.2418   26.7559    0.5857 H         1 UNK         0.0745 
     79 H79        32.7301   26.9258    1.2854 H         1 UNK         0.0705 
     80 H80        31.8089   25.6048    0.6175 H         1 UNK         0.0705 
     81 H81        32.9992   27.1862    3.6593 H         1 UNK         0.1334 
     82 H82        31.1104   24.4122    6.3284 H         1 UNK         0.1417 
     83 H83        30.1597   24.3581    2.1470 H         1 UNK         0.1562 
     84 H84        28.9844   22.9032    3.5677 H         1 UNK         0.0748 
     85 H85        30.0352   22.2564    4.7994 H         1 UNK         0.0748 
     86 H86        28.3287   25.9381    5.5857 H         1 UNK         0.0940 
     87 H87        26.7087   25.3812    5.8983 H         1 UNK         0.0940 
     88 H88        28.1660   25.2804    3.2065 H         1 UNK         0.0703 
     89 H89        25.5613   24.0972    3.9322 H         1 UNK         0.3081 
     90 H90        25.6454   21.9090    1.6156 H         1 UNK         0.0719 
     91 H91        24.3744   22.4026    3.6569 H         1 UNK         0.0809 
     92 H92        23.5482   23.7561    2.8878 H         1 UNK         0.0809 
     93 H93        23.2436   22.1080    2.3541 H         1 UNK         0.0809 
     94 H94        24.9756   22.5358   -0.3999 H         1 UNK         0.2990 
     95 H95        23.3662   23.4716   -1.9486 H         1 UNK         0.0690 
     96 H96        22.7014   25.5819   -3.0627 H         1 UNK         0.0788 
     97 H97        23.3006   26.5280   -1.7011 H         1 UNK         0.0788 
     98 H98        21.9199   25.4573   -1.4948 H         1 UNK         0.0788 
     99 H99        25.4134   25.5449   -2.4389 H         1 UNK         0.2993 
    100 H100       27.8366   23.1320   -3.4951 H         1 UNK         0.0949 
    101 H101       26.3516   23.9882   -5.3005 H         1 UNK         0.0767 
    102 H102       26.4301   25.6083   -4.6252 H         1 UNK         0.0767 
    103 H103       27.8838   24.8457   -5.2608 H         1 UNK         0.0767 
    104 H104       29.0769   24.5289   -2.3607 H         1 UNK         0.3013 
    105 H105       28.5889   27.5113    3.3194 H         1 UNK         0.3121 
    106 H106       26.4382   29.4179    3.6753 H         1 UNK         0.0774 
    107 H107       26.7861   30.4875    1.4584 H         1 UNK         0.0815 
    108 H108       27.9756   29.2778    1.0068 H         1 UNK         0.0815 
    109 H109       26.2824   28.8273    1.1942 H         1 UNK         0.0815 
    110 H110       27.4985   31.6693    3.4653 H         1 UNK         0.2987 
    111 H111       29.9261   31.6790    5.0850 H         1 UNK         0.0949 
    112 H112       29.4652   34.1184    5.2163 H         1 UNK         0.0806 
    113 H113       28.0376   33.1851    5.6283 H         1 UNK         0.0806 
    114 H114       28.1603   33.9588    4.0474 H         1 UNK         0.0806 
    115 H115       31.0846   30.5419    3.1913 H         1 UNK         0.3010 
    116 H116       32.7251   32.5438    1.8181 H         1 UNK         0.0829 
    117 H117       31.2920   30.2812    0.3009 H         1 UNK         0.0813 
    118 H118       30.9685   32.0003    0.1072 H         1 UNK         0.0813 
    119 H119       32.5190   31.3381   -0.3800 H         1 UNK         0.0813 
    120 H120       34.6609   31.4934    0.8917 H         1 UNK         0.3038 
    121 H121       36.5929   30.4543    1.2026 H         1 UNK         0.0769 
    122 H122       36.6245   27.9823    1.3617 H         1 UNK         0.0811 
    123 H123       35.3707   28.4878    0.2504 H         1 UNK         0.0811 
    124 H124       34.9334   27.9510    1.8642 H         1 UNK         0.0811 
    125 H125       36.3925   28.1044    3.4690 H         1 UNK         0.3204 
    126 H126       37.6689   29.5608    5.5562 H         1 UNK         0.0748 
    127 H127       37.4452   27.3989    6.8066 H         1 UNK         0.0771 
    128 H128       36.3645   26.7824    5.5649 H         1 UNK         0.0771 
    129 H129       38.0478   27.1413    5.1791 H         1 UNK         0.0771 
    130 H130       34.2848   29.2139    4.8405 H         1 UNK         0.2980 
    131 H131       33.4449   30.0306    7.5648 H         1 UNK         0.0545 
    132 H132       34.6297   31.7141    4.9138 H         1 UNK         0.3459 
    133 H133       33.6317   33.1326    5.1199 H         1 UNK         0.3459 
    134 H134       31.0933   29.6291    6.5156 H         1 UNK         0.0616 
    135 H135       31.9128   28.8369    5.2048 H         1 UNK         0.0616 
    136 H136       33.2801   25.5773    6.9146 H         1 UNK         0.0634 
    137 H137       33.8923   26.8531    5.9070 H         1 UNK         0.0634 
@<TRIPOS>BOND
     1    1    2 1    
     2    1   72 1    
     3    1   73 1    
     4    1   74 1    
     5    2    3 2    
     6    2    4 am   BACKBONE|DICT|INTERRES
     7    4    5 1    
     8    4   75 1    
     9    5    6 1    
    10    5   35 1    
    11    5   76 1    
    12    6    7 1    
    13    6   77 1    
    14    6   78 1    
    15    7    8 1    
    16    8    9 1    
    17    8   79 1    
    18    8   80 1    
    19    9   10 ar   
    20    9   14 ar   
    21   10   11 ar   
    22   10   81 1    
    23   11   12 ar   
    24   11   71 1    
    25   12   13 ar   
    26   12   82 1    
    27   13   14 ar   
    28   13   15 1    
    29   14   83 1    
    30   15   16 1    
    31   15   84 1    
    32   15   85 1    
    33   16   17 1    
    34   17   18 1    
    35   17   86 1    
    36   17   87 1    
    37   18   19 1    
    38   18   37 1    
    39   18   88 1    
    40   19   20 am   BACKBONE|DICT|INTERRES
    41   19   89 1    
    42   20   21 2    
    43   20   22 1    
    44   22   23 1    
    45   22   24 1    
    46   22   90 1    
    47   23   91 1    
    48   23   92 1    
    49   23   93 1    
    50   24   25 am   BACKBONE|DICT|INTERRES
    51   24   94 1    
    52   25   26 2    
    53   25   27 1    
    54   27   28 1    
    55   27   29 1    
    56   27   95 1    
    57   28   96 1    
    58   28   97 1    
    59   28   98 1    
    60   29   30 am   BACKBONE|DICT|INTERRES
    61   29   99 1    
    62   30   31 2    
    63   30   32 1    
    64   32   33 1    
    65   32   34 1    
    66   32  100 1    
    67   33  101 1    
    68   33  102 1    
    69   33  103 1    
    70   34   35 am   BACKBONE|DICT|INTERRES
    71   34  104 1    
    72   35   36 2    
    73   37   38 2    
    74   37   39 am   BACKBONE|DICT|INTERRES
    75   39   40 1    
    76   39  105 1    
    77   40   41 1    
    78   40   42 1    
    79   40  106 1    
    80   41  107 1    
    81   41  108 1    
    82   41  109 1    
    83   42   43 2    
    84   42   44 am   BACKBONE|DICT|INTERRES
    85   44   45 1    
    86   44  110 1    
    87   45   46 1    
    88   45   47 1    
    89   45  111 1    
    90   46  112 1    
    91   46  113 1    
    92   46  114 1    
    93   47   48 2    
    94   47   49 am   BACKBONE|DICT|INTERRES
    95   49   50 1    
    96   49  115 1    
    97   50   51 1    
    98   50   52 1    
    99   50  116 1    
   100   51  117 1    
   101   51  118 1    
   102   51  119 1    
   103   52   53 2    
   104   52   54 am   BACKBONE|DICT|INTERRES
   105   54   55 1    
   106   54  120 1    
   107   55   56 1    
   108   55   57 1    
   109   55  121 1    
   110   56  122 1    
   111   56  123 1    
   112   56  124 1    
   113   57   58 2    
   114   57   59 am   BACKBONE|DICT|INTERRES
   115   59   60 1    
   116   59  125 1    
   117   60   61 1    
   118   60   62 1    
   119   60  126 1    
   120   61  127 1    
   121   61  128 1    
   122   61  129 1    
   123   62   63 2    
   124   62   64 am   BACKBONE|DICT|INTERRES
   125   64   65 1    
   126   64  130 1    
   127   65   66 1    
   128   65   69 1    
   129   65  131 1    
   130   66   67 am   BACKBONE|DICT|INTERRES
   131   66   68 2    
   132   67  132 1    
   133   67  133 1    
   134   69   70 1    
   135   69  134 1    
   136   69  135 1    
   137   70   71 1    
   138   71  136 1    
   139   71  137 1    
@<TRIPOS>SUBSTRUCTURE
     1 UNK         1 GROUP             0       ****    0 ROOT    
