@<TRIPOS>MOLECULE
3R136
137   139    1
SMALL
USER_CHARGES


@<TRIPOS>ATOM
      1 CA         26.0663   20.8622   -0.0475 C.3       0 UNK        -0.1979 
      2 C          27.0837   21.6290    0.7831 C.2       0 UNK         0.4864 
      3 O          26.9057   21.7541    1.9961 O.2       0 UNK        -0.5359 
      4 N          28.1364   22.1520    0.1357 N.am      1 UNK        -0.4318 
      5 CA         29.2421   22.9202    0.7253 C.3       1 UNK         0.0824 
      6 C6         30.2451   22.0284    1.5129 C.3       12 UNK        -0.0944 
      7 S7         31.2329   21.0023    0.3689 S.3       12 UNK        -0.2672 
      8 C8         32.8427   21.8701    0.3405 C.3       12 UNK         0.0333 
      9 C9         32.6936   23.3695    0.1128 C.ar      12 UNK        -0.0807 
     10 C10        32.9991   24.2684    1.1409 C.ar      12 UNK        -0.0894 
     11 C11        32.7802   25.6377    0.9712 C.ar      12 UNK        -0.0804 
     12 C12        32.2601   26.1065   -0.2361 C.ar      12 UNK        -0.0824 
     13 C13        31.9483   25.2206   -1.2692 C.ar      12 UNK        -0.0762 
     14 C14        32.1963   23.8546   -1.1017 C.ar      12 UNK        -0.0782 
     15 C15        31.2963   25.7348   -2.5423 C.3       12 UNK         0.0230 
     16 S16        29.4949   25.4558   -2.4912 S.3       12 UNK        -0.2608 
     17 C17        28.7946   27.1253   -2.7711 C.3       12 UNK        -0.0989 
     18 CA         28.0584   27.7419   -1.5440 C.3       5 UNK         0.0716 
     19 N          27.0948   26.8187   -0.9376 N.am      5 UNK        -0.4135 
     20 C          25.8562   26.6245   -1.4047 C.2       4 UNK         0.5031 
     21 O          25.3287   27.3472   -2.2519 O.2       4 UNK        -0.5229 
     22 CA         25.0744   25.4058   -0.8943 C.3       4 UNK         0.0329 
     23 CB         25.4722   24.1589   -1.7019 C.3       4 UNK        -0.2001 
     24 N          25.2595   25.1309    0.5353 N.am      4 UNK        -0.4303 
     25 C          24.2503   25.0390    1.4168 C.2       3 UNK         0.5044 
     26 O          23.0808   25.3102    1.1393 O.2       3 UNK        -0.5152 
     27 CA         24.5539   24.5244    2.8381 C.3       3 UNK         0.0319 
     28 CB         23.8879   23.1564    3.0664 C.3       3 UNK        -0.2001 
     29 N          25.9837   24.4001    3.1203 N.am      3 UNK        -0.4354 
     30 C          26.7445   25.3919    3.6045 C.2       2 UNK         0.4964 
     31 O          26.3026   26.4974    3.9162 O.2       2 UNK        -0.5047 
     32 CA         28.2554   25.1233    3.7485 C.3       2 UNK         0.0288 
     33 CB         28.6025   24.7504    5.1976 C.3       2 UNK        -0.2113 
     34 N          28.7790   24.0927    2.8483 N.am      2 UNK        -0.4145 
     35 C          28.7107   24.1348    1.5103 C.2       1 UNK         0.5006 
     36 O          28.1848   25.0599    0.8878 O.2       1 UNK        -0.5103 
     37 C          28.9820   28.3823   -0.4916 C.2       5 UNK         0.5055 
     38 O          30.1557   28.6284   -0.7744 O.2       5 UNK        -0.5220 
     39 N          28.4330   28.6965    0.6920 N.am      6 UNK        -0.4450 
     40 CA         29.1062   29.4353    1.7667 C.3       6 UNK         0.0367 
     41 CB         28.3091   29.2803    3.0739 C.3       6 UNK        -0.1929 
     42 C          29.3211   30.9181    1.4023 C.2       6 UNK         0.5070 
     43 O          28.6110   31.7922    1.9017 O.2       6 UNK        -0.5237 
     44 N          30.2864   31.1704    0.5117 N.am      7 UNK        -0.4739 
     45 CA         30.6468   32.4939   -0.0051 C.3       7 UNK         0.0276 
     46 CB         31.5131   32.3113   -1.2622 C.3       7 UNK        -0.1927 
     47 C          31.3623   33.4001    1.0150 C.2       7 UNK         0.5013 
     48 O          31.4327   34.6094    0.7903 O.2       7 UNK        -0.5193 
     49 N          31.8834   32.8177    2.1006 N.am      8 UNK        -0.4253 
     50 CA         32.5498   33.5106    3.1975 C.3       8 UNK         0.0242 
     51 CB         34.0646   33.5644    2.9295 C.3       8 UNK        -0.2000 
     52 C          32.2539   32.7654    4.5014 C.2       8 UNK         0.4948 
     53 O          32.0103   31.5554    4.4723 O.2       8 UNK        -0.5275 
     54 N          32.3351   33.4900    5.6265 N.am      9 UNK        -0.4246 
     55 CA         32.0901   32.9868    6.9855 C.3       9 UNK         0.0261 
     56 CB         32.1682   34.1547    7.9820 C.3       9 UNK        -0.1959 
     57 C          33.0266   31.8453    7.4228 C.2       9 UNK         0.5033 
     58 O          32.6382   31.0403    8.2703 O.2       9 UNK        -0.5390 
     59 N          34.2146   31.7606    6.8054 N.am      10 UNK        -0.4215 
     60 CA         35.1857   30.6721    6.9588 C.3       10 UNK         0.0240 
     61 CB         36.4475   31.0093    6.1474 C.3       10 UNK        -0.1982 
     62 C          34.6459   29.2829    6.5612 C.2       10 UNK         0.4970 
     63 O          35.1852   28.2796    7.0296 O.2       10 UNK        -0.4916 
     64 N          33.5932   29.2434    5.7318 N.am      11 UNK        -0.4279 
     65 CA         32.8270   28.0324    5.4113 C.3       11 UNK         0.1003 
     66 C          31.9615   27.4952    6.5937 C.2       11 UNK         0.5709 
     67 N          31.7084   28.2664    7.6466 N.am      11 UNK        -0.7358 
     68 O          31.5310   26.3458    6.5711 O.2       11 UNK        -0.4999 
     69 C69        31.9919   28.2561    4.1232 C.3       12 UNK        -0.0954 
     70 S70        31.6256   26.7228    3.2110 S.3       12 UNK        -0.2268 
     71 C71        33.0600   26.6139    2.1006 C.3       12 UNK         0.0203 
     72 H72        26.2944   20.9021   -1.1124 H         1 UNK         0.0888 
     73 H73        26.0476   19.8164    0.2578 H         1 UNK         0.0888 
     74 H74        25.0703   21.2779    0.1021 H         1 UNK         0.0888 
     75 H75        28.2076   22.0170   -0.8628 H         1 UNK         0.3017 
     76 H76        29.7699   23.3622   -0.1181 H         1 UNK         0.0873 
     77 H77        30.9276   22.6250    2.1197 H         1 UNK         0.0745 
     78 H78        29.7214   21.3696    2.2075 H         1 UNK         0.0745 
     79 H79        33.3636   21.6721    1.2786 H         1 UNK         0.0705 
     80 H80        33.4626   21.4440   -0.4496 H         1 UNK         0.0705 
     81 H81        33.3748   23.9025    2.0869 H         1 UNK         0.1334 
     82 H82        32.0747   27.1631   -0.3591 H         1 UNK         0.1417 
     83 H83        31.9404   23.1613   -1.8918 H         1 UNK         0.1562 
     84 H84        31.7134   25.2190   -3.4083 H         1 UNK         0.0748 
     85 H85        31.5225   26.7931   -2.6786 H         1 UNK         0.0748 
     86 H86        28.0772   27.0248   -3.5870 H         1 UNK         0.0940 
     87 H87        29.5552   27.8048   -3.1585 H         1 UNK         0.0940 
     88 H88        27.5016   28.6007   -1.9250 H         1 UNK         0.0703 
     89 H89        27.4890   26.1721   -0.2532 H         1 UNK         0.3081 
     90 H90        24.0229   25.6080   -1.1084 H         1 UNK         0.0719 
     91 H91        26.5181   23.8939   -1.5448 H         1 UNK         0.0809 
     92 H92        24.8585   23.3003   -1.4310 H         1 UNK         0.0809 
     93 H93        25.3374   24.3261   -2.7716 H         1 UNK         0.0809 
     94 H94        26.2074   24.9514    0.8489 H         1 UNK         0.2990 
     95 H95        24.1068   25.2319    3.5396 H         1 UNK         0.0690 
     96 H96        24.0641   22.7933    4.0790 H         1 UNK         0.0788 
     97 H97        24.2606   22.4037    2.3711 H         1 UNK         0.0788 
     98 H98        22.8073   23.2183    2.9299 H         1 UNK         0.0788 
     99 H99        26.4184   23.5136    2.8777 H         1 UNK         0.2993 
    100 H100       28.7715   26.0505    3.5009 H         1 UNK         0.0949 
    101 H101       29.6795   24.6452    5.3313 H         1 UNK         0.0767 
    102 H102       28.2688   25.5245    5.8902 H         1 UNK         0.0767 
    103 H103       28.1306   23.8143    5.4987 H         1 UNK         0.0767 
    104 H104       29.1737   23.2725    3.2842 H         1 UNK         0.3013 
    105 H105       27.4548   28.4890    0.8318 H         1 UNK         0.3121 
    106 H106       30.0911   28.9916    1.9229 H         1 UNK         0.0774 
    107 H107       28.7671   29.8540    3.8809 H         1 UNK         0.0815 
    108 H108       27.2808   29.6281    2.9689 H         1 UNK         0.0815 
    109 H109       28.2806   28.2438    3.3995 H         1 UNK         0.0815 
    110 H110       30.7384   30.3689    0.0816 H         1 UNK         0.2987 
    111 H111       29.7257   33.0044   -0.2950 H         1 UNK         0.0949 
    112 H112       32.4477   31.7963   -1.0359 H         1 UNK         0.0806 
    113 H113       30.9889   31.7357   -2.0256 H         1 UNK         0.0806 
    114 H114       31.7702   33.2749   -1.7045 H         1 UNK         0.0806 
    115 H115       31.7318   31.8289    2.2525 H         1 UNK         0.3010 
    116 H116       32.1553   34.5256    3.2846 H         1 UNK         0.0829 
    117 H117       34.2829   34.0935    2.0017 H         1 UNK         0.0813 
    118 H118       34.5895   34.0881    3.7294 H         1 UNK         0.0813 
    119 H119       34.4957   32.5652    2.8526 H         1 UNK         0.0813 
    120 H120       32.5560   34.4731    5.5498 H         1 UNK         0.3038 
    121 H121       31.0733   32.5885    7.0049 H         1 UNK         0.0769 
    122 H122       33.1559   34.6176    7.9864 H         1 UNK         0.0811 
    123 H123       31.9635   33.8149    8.9985 H         1 UNK         0.0811 
    124 H124       31.4348   34.9269    7.7487 H         1 UNK         0.0811 
    125 H125       34.4420   32.4754    6.1304 H         1 UNK         0.3204 
    126 H126       35.4574   30.6217    8.0152 H         1 UNK         0.0748 
    127 H127       37.2049   30.2323    6.2616 H         1 UNK         0.0771 
    128 H128       36.2305   31.0986    5.0820 H         1 UNK         0.0771 
    129 H129       36.8961   31.9457    6.4798 H         1 UNK         0.0771 
    130 H130       33.1948   30.1128    5.3946 H         1 UNK         0.2980 
    131 H131       33.5621   27.2541    5.1975 H         1 UNK         0.0545 
    132 H132       32.0739   29.2101    7.7150 H         1 UNK         0.3459 
    133 H133       31.1565   27.8916    8.4010 H         1 UNK         0.3459 
    134 H134       31.0515   28.7579    4.3573 H         1 UNK         0.0616 
    135 H135       32.5132   28.9302    3.4417 H         1 UNK         0.0616 
    136 H136       33.9371   26.3003    2.6686 H         1 UNK         0.0634 
    137 H137       33.2885   27.5986    1.6901 H         1 UNK         0.0634 
@<TRIPOS>BOND
     1    1    2 1    
     2    1   72 1    
     3    1   73 1    
     4    1   74 1    
     5    2    3 2    
     6    2    4 am   BACKBONE|DICT|INTERRES
     7    4    5 1    
     8    4   75 1    
     9    5    6 1    
    10    5   35 1    
    11    5   76 1    
    12    6    7 1    
    13    6   77 1    
    14    6   78 1    
    15    7    8 1    
    16    8    9 1    
    17    8   79 1    
    18    8   80 1    
    19    9   10 ar   
    20    9   14 ar   
    21   10   11 ar   
    22   10   81 1    
    23   11   12 ar   
    24   11   71 1    
    25   12   13 ar   
    26   12   82 1    
    27   13   14 ar   
    28   13   15 1    
    29   14   83 1    
    30   15   16 1    
    31   15   84 1    
    32   15   85 1    
    33   16   17 1    
    34   17   18 1    
    35   17   86 1    
    36   17   87 1    
    37   18   19 1    
    38   18   37 1    
    39   18   88 1    
    40   19   20 am   BACKBONE|DICT|INTERRES
    41   19   89 1    
    42   20   21 2    
    43   20   22 1    
    44   22   23 1    
    45   22   24 1    
    46   22   90 1    
    47   23   91 1    
    48   23   92 1    
    49   23   93 1    
    50   24   25 am   BACKBONE|DICT|INTERRES
    51   24   94 1    
    52   25   26 2    
    53   25   27 1    
    54   27   28 1    
    55   27   29 1    
    56   27   95 1    
    57   28   96 1    
    58   28   97 1    
    59   28   98 1    
    60   29   30 am   BACKBONE|DICT|INTERRES
    61   29   99 1    
    62   30   31 2    
    63   30   32 1    
    64   32   33 1    
    65   32   34 1    
    66   32  100 1    
    67   33  101 1    
    68   33  102 1    
    69   33  103 1    
    70   34   35 am   BACKBONE|DICT|INTERRES
    71   34  104 1    
    72   35   36 2    
    73   37   38 2    
    74   37   39 am   BACKBONE|DICT|INTERRES
    75   39   40 1    
    76   39  105 1    
    77   40   41 1    
    78   40   42 1    
    79   40  106 1    
    80   41  107 1    
    81   41  108 1    
    82   41  109 1    
    83   42   43 2    
    84   42   44 am   BACKBONE|DICT|INTERRES
    85   44   45 1    
    86   44  110 1    
    87   45   46 1    
    88   45   47 1    
    89   45  111 1    
    90   46  112 1    
    91   46  113 1    
    92   46  114 1    
    93   47   48 2    
    94   47   49 am   BACKBONE|DICT|INTERRES
    95   49   50 1    
    96   49  115 1    
    97   50   51 1    
    98   50   52 1    
    99   50  116 1    
   100   51  117 1    
   101   51  118 1    
   102   51  119 1    
   103   52   53 2    
   104   52   54 am   BACKBONE|DICT|INTERRES
   105   54   55 1    
   106   54  120 1    
   107   55   56 1    
   108   55   57 1    
   109   55  121 1    
   110   56  122 1    
   111   56  123 1    
   112   56  124 1    
   113   57   58 2    
   114   57   59 am   BACKBONE|DICT|INTERRES
   115   59   60 1    
   116   59  125 1    
   117   60   61 1    
   118   60   62 1    
   119   60  126 1    
   120   61  127 1    
   121   61  128 1    
   122   61  129 1    
   123   62   63 2    
   124   62   64 am   BACKBONE|DICT|INTERRES
   125   64   65 1    
   126   64  130 1    
   127   65   66 1    
   128   65   69 1    
   129   65  131 1    
   130   66   67 am   BACKBONE|DICT|INTERRES
   131   66   68 2    
   132   67  132 1    
   133   67  133 1    
   134   69   70 1    
   135   69  134 1    
   136   69  135 1    
   137   70   71 1    
   138   71  136 1    
   139   71  137 1    
@<TRIPOS>SUBSTRUCTURE
     1 UNK         1 GROUP             0       ****    0 ROOT    
