@<TRIPOS>MOLECULE
3R136
137   139    1
SMALL
USER_CHARGES


@<TRIPOS>ATOM
      1 CA         26.6203   24.4869    4.2584 C.3       0 UNK        -0.1979 
      2 C          26.4579   22.9691    4.2542 C.2       0 UNK         0.4864 
      3 O          25.6949   22.4552    5.0702 O.2       0 UNK        -0.5359 
      4 N          27.1214   22.1981    3.3767 N.am      1 UNK        -0.4318 
      5 CA         28.0704   22.5680    2.3103 C.3       1 UNK         0.0824 
      6 C6         29.3271   23.3426    2.7939 C.3       12 UNK        -0.0944 
      7 S7         30.2493   22.5231    4.1393 S.3       12 UNK        -0.2672 
      8 C8         31.6372   21.7375    3.2526 C.3       12 UNK         0.0333 
      9 C9         32.5114   22.7411    2.5091 C.ar      12 UNK        -0.0807 
     10 C10        33.3839   23.5823    3.2073 C.ar      12 UNK        -0.0894 
     11 C11        34.1814   24.5065    2.5225 C.ar      12 UNK        -0.0804 
     12 C12        34.1048   24.5790    1.1272 C.ar      12 UNK        -0.0824 
     13 C13        33.2206   23.7588    0.4206 C.ar      12 UNK        -0.0762 
     14 C14        32.4419   22.8296    1.1156 C.ar      12 UNK        -0.0782 
     15 C15        33.0957   23.8763   -1.0931 C.3       12 UNK         0.0230 
     16 S16        32.4042   25.4789   -1.6279 S.3       12 UNK        -0.2608 
     17 C17        30.7845   25.5423   -0.7832 C.3       12 UNK        -0.0989 
     18 CA         30.5583   26.9200   -0.0906 C.3       5 UNK         0.0716 
     19 N          29.5467   27.7094   -0.8010 N.am      5 UNK        -0.4135 
     20 C          29.4564   29.0430   -0.8179 C.2       4 UNK         0.5031 
     21 O          30.2384   29.7826   -0.2254 O.2       4 UNK        -0.5229 
     22 CA         28.2806   29.6680   -1.5935 C.3       4 UNK         0.0329 
     23 CB         28.6201   29.8043   -3.0907 C.3       4 UNK        -0.2001 
     24 N          26.9752   29.0135   -1.3943 N.am      4 UNK        -0.4303 
     25 C          26.5897   27.7792   -1.7488 C.2       3 UNK         0.5044 
     26 O          27.3237   26.9581   -2.3048 O.2       3 UNK        -0.5152 
     27 CA         25.1271   27.4126   -1.4492 C.3       3 UNK         0.0319 
     28 CB         24.2259   27.7968   -2.6339 C.3       3 UNK        -0.2001 
     29 N          24.9842   25.9800   -1.1874 N.am      3 UNK        -0.4354 
     30 C          25.3635   25.3725   -0.0559 C.2       2 UNK         0.4964 
     31 O          25.7749   25.9823    0.9340 O.2       2 UNK        -0.5047 
     32 CA         25.2147   23.8351   -0.0101 C.3       2 UNK         0.0288 
     33 CB         25.4288   23.1573   -1.3839 C.3       2 UNK        -0.2113 
     34 N          26.0658   23.2095    1.0120 N.am      2 UNK        -0.4145 
     35 C          27.4070   23.2443    1.0854 C.2       1 UNK         0.5006 
     36 O          28.1219   23.7665    0.2287 O.2       1 UNK        -0.5103 
     37 C          30.2730   26.7952    1.4261 C.2       5 UNK         0.5055 
     38 O          31.0464   26.1465    2.1266 O.2       5 UNK        -0.5220 
     39 N          29.1935   27.4158    1.9239 N.am      6 UNK        -0.4450 
     40 CA         28.8419   27.4853    3.3419 C.3       6 UNK         0.0367 
     41 CB         27.4665   28.1569    3.4831 C.3       6 UNK        -0.1929 
     42 C          29.8858   28.2453    4.1756 C.2       6 UNK         0.5070 
     43 O          30.4085   29.2686    3.7272 O.2       6 UNK        -0.5237 
     44 N          30.1029   27.7863    5.4155 N.am      7 UNK        -0.4739 
     45 CA         30.9757   28.4354    6.4019 C.3       7 UNK         0.0276 
     46 CB         31.1141   27.5336    7.6377 C.3       7 UNK        -0.1927 
     47 C          30.4926   29.8408    6.8049 C.2       7 UNK         0.5013 
     48 O          31.3196   30.7059    7.0901 O.2       7 UNK        -0.5193 
     49 N          29.1718   30.0678    6.7433 N.am      8 UNK        -0.4253 
     50 CA         28.5278   31.3760    6.9063 C.3       8 UNK         0.0242 
     51 CB         27.0030   31.1841    6.9443 C.3       8 UNK        -0.2000 
     52 C          28.9126   32.3973    5.8165 C.2       8 UNK         0.4948 
     53 O          28.8457   33.5995    6.0730 O.2       8 UNK        -0.5275 
     54 N          29.3297   31.9074    4.6405 N.am      9 UNK        -0.4246 
     55 CA         29.8730   32.6943    3.5324 C.3       9 UNK         0.0261 
     56 CB         29.2223   32.2076    2.2241 C.3       9 UNK        -0.1959 
     57 C          31.4105   32.5885    3.4667 C.2       9 UNK         0.5033 
     58 O          31.9925   32.9439    2.4401 O.2       9 UNK        -0.5390 
     59 N          32.0449   32.0746    4.5354 N.am      10 UNK        -0.4215 
     60 CA         33.4823   31.8125    4.6844 C.3       10 UNK         0.0240 
     61 CB         34.2649   33.1398    4.7797 C.3       10 UNK        -0.1982 
     62 C          34.0492   30.8594    3.6122 C.2       10 UNK         0.4970 
     63 O          35.2176   30.9908    3.2430 O.2       10 UNK        -0.4916 
     64 N          33.2088   29.9368    3.1212 N.am      11 UNK        -0.4279 
     65 CA         33.4813   29.0270    1.9975 C.3       11 UNK         0.1003 
     66 C          33.6376   29.7393    0.6167 C.2       11 UNK         0.5709 
     67 N          33.2836   31.0120    0.4708 N.am      11 UNK        -0.7358 
     68 O          34.0688   29.1217   -0.3541 O.2       11 UNK        -0.4999 
     69 C69        34.6296   28.0149    2.2845 C.3       12 UNK        -0.0954 
     70 S70        34.3401   26.9912    3.7692 S.3       12 UNK        -0.2268 
     71 C71        35.1278   25.4167    3.2944 C.3       12 UNK         0.0203 
     72 H72        26.7840   24.8993    3.2654 H         1 UNK         0.0888 
     73 H73        25.7217   24.9591    4.6548 H         1 UNK         0.0888 
     74 H74        27.4536   24.7677    4.9011 H         1 UNK         0.0888 
     75 H75        26.9664   21.2016    3.4454 H         1 UNK         0.3017 
     76 H76        28.4311   21.6142    1.9220 H         1 UNK         0.0873 
     77 H77        29.0636   24.3384    3.1375 H         1 UNK         0.0745 
     78 H78        30.0030   23.5161    1.9594 H         1 UNK         0.0745 
     79 H79        31.2390   20.9884    2.5664 H         1 UNK         0.0705 
     80 H80        32.2498   21.1933    3.9727 H         1 UNK         0.0705 
     81 H81        33.4322   23.5244    4.2861 H         1 UNK         0.1334 
     82 H82        34.7160   25.2862    0.5851 H         1 UNK         0.1417 
     83 H83        31.7601   22.1893    0.5725 H         1 UNK         0.1562 
     84 H84        32.4742   23.0751   -1.4961 H         1 UNK         0.0748 
     85 H85        34.0819   23.7516   -1.5422 H         1 UNK         0.0748 
     86 H86        30.7126   24.7136   -0.0784 H         1 UNK         0.0940 
     87 H87        30.0081   25.3351   -1.5220 H         1 UNK         0.0940 
     88 H88        31.4891   27.4890   -0.1376 H         1 UNK         0.0703 
     89 H89        28.8435   27.1926   -1.3260 H         1 UNK         0.3081 
     90 H90        28.1592   30.6784   -1.1989 H         1 UNK         0.0719 
     91 H91        29.5384   30.3768   -3.2295 H         1 UNK         0.0809 
     92 H92        28.7695   28.8353   -3.5679 H         1 UNK         0.0809 
     93 H93        27.8295   30.3253   -3.6306 H         1 UNK         0.0809 
     94 H94        26.2873   29.5919   -0.9308 H         1 UNK         0.2990 
     95 H95        24.7967   27.9628   -0.5652 H         1 UNK         0.0690 
     96 H96        23.1806   27.5640   -2.4296 H         1 UNK         0.0788 
     97 H97        24.5145   27.2742   -3.5471 H         1 UNK         0.0788 
     98 H98        24.2836   28.8666   -2.8397 H         1 UNK         0.0788 
     99 H99        24.6920   25.4072   -1.9654 H         1 UNK         0.2993 
    100 H100       24.1859   23.6433    0.2986 H         1 UNK         0.0949 
    101 H101       24.6471   23.4311   -2.0930 H         1 UNK         0.0767 
    102 H102       26.3876   23.4317   -1.8264 H         1 UNK         0.0767 
    103 H103       25.4044   22.0710   -1.2952 H         1 UNK         0.0767 
    104 H104       25.5729   22.7595    1.7703 H         1 UNK         0.3013 
    105 H105       28.6207   27.9490    1.2890 H         1 UNK         0.3121 
    106 H106       28.7753   26.4672    3.7214 H         1 UNK         0.0774 
    107 H107       26.6997   27.6116    2.9326 H         1 UNK         0.0815 
    108 H108       27.1488   28.1889    4.5260 H         1 UNK         0.0815 
    109 H109       27.4785   29.1834    3.1136 H         1 UNK         0.0815 
    110 H110       29.6391   26.9396    5.7129 H         1 UNK         0.2987 
    111 H111       31.9628   28.5483    5.9471 H         1 UNK         0.0949 
    112 H112       31.5384   26.5642    7.3751 H         1 UNK         0.0806 
    113 H113       31.7777   27.9851    8.3769 H         1 UNK         0.0806 
    114 H114       30.1534   27.3609    8.1244 H         1 UNK         0.0806 
    115 H115       28.5709   29.2910    6.5108 H         1 UNK         0.3010 
    116 H116       28.8484   31.7874    7.8659 H         1 UNK         0.0829 
    117 H117       26.7046   30.5289    7.7630 H         1 UNK         0.0813 
    118 H118       26.4937   32.1373    7.0939 H         1 UNK         0.0813 
    119 H119       26.6255   30.7561    6.0146 H         1 UNK         0.0813 
    120 H120       29.3962   30.9023    4.5218 H         1 UNK         0.3038 
    121 H121       29.6297   33.7507    3.6616 H         1 UNK         0.0769 
    122 H122       29.5550   32.8015    1.3719 H         1 UNK         0.0811 
    123 H123       28.1361   32.2859    2.2673 H         1 UNK         0.0811 
    124 H124       29.4756   31.1681    2.0123 H         1 UNK         0.0811 
    125 H125       31.4854   31.7959    5.3341 H         1 UNK         0.3204 
    126 H126       33.5998   31.2925    5.6360 H         1 UNK         0.0748 
    127 H127       35.3119   32.9620    5.0287 H         1 UNK         0.0771 
    128 H128       34.2429   33.6899    3.8383 H         1 UNK         0.0771 
    129 H129       33.8554   33.7864    5.5558 H         1 UNK         0.0771 
    130 H130       32.2535   29.9025    3.4642 H         1 UNK         0.2980 
    131 H131       32.5676   28.4460    1.8929 H         1 UNK         0.0545 
    132 H132       33.3744   31.4425   -0.4345 H         1 UNK         0.3459 
    133 H133       32.8920   31.5418    1.2414 H         1 UNK         0.3459 
    134 H134       34.7532   27.3505    1.4310 H         1 UNK         0.0616 
    135 H135       35.5844   28.5287    2.3996 H         1 UNK         0.0616 
    136 H136       36.0296   25.6137    2.7127 H         1 UNK         0.0634 
    137 H137       35.4608   24.9113    4.2021 H         1 UNK         0.0634 
@<TRIPOS>BOND
     1    1    2 1    
     2    1   72 1    
     3    1   73 1    
     4    1   74 1    
     5    2    3 2    
     6    2    4 am   BACKBONE|DICT|INTERRES
     7    4    5 1    
     8    4   75 1    
     9    5    6 1    
    10    5   35 1    
    11    5   76 1    
    12    6    7 1    
    13    6   77 1    
    14    6   78 1    
    15    7    8 1    
    16    8    9 1    
    17    8   79 1    
    18    8   80 1    
    19    9   10 ar   
    20    9   14 ar   
    21   10   11 ar   
    22   10   81 1    
    23   11   12 ar   
    24   11   71 1    
    25   12   13 ar   
    26   12   82 1    
    27   13   14 ar   
    28   13   15 1    
    29   14   83 1    
    30   15   16 1    
    31   15   84 1    
    32   15   85 1    
    33   16   17 1    
    34   17   18 1    
    35   17   86 1    
    36   17   87 1    
    37   18   19 1    
    38   18   37 1    
    39   18   88 1    
    40   19   20 am   BACKBONE|DICT|INTERRES
    41   19   89 1    
    42   20   21 2    
    43   20   22 1    
    44   22   23 1    
    45   22   24 1    
    46   22   90 1    
    47   23   91 1    
    48   23   92 1    
    49   23   93 1    
    50   24   25 am   BACKBONE|DICT|INTERRES
    51   24   94 1    
    52   25   26 2    
    53   25   27 1    
    54   27   28 1    
    55   27   29 1    
    56   27   95 1    
    57   28   96 1    
    58   28   97 1    
    59   28   98 1    
    60   29   30 am   BACKBONE|DICT|INTERRES
    61   29   99 1    
    62   30   31 2    
    63   30   32 1    
    64   32   33 1    
    65   32   34 1    
    66   32  100 1    
    67   33  101 1    
    68   33  102 1    
    69   33  103 1    
    70   34   35 am   BACKBONE|DICT|INTERRES
    71   34  104 1    
    72   35   36 2    
    73   37   38 2    
    74   37   39 am   BACKBONE|DICT|INTERRES
    75   39   40 1    
    76   39  105 1    
    77   40   41 1    
    78   40   42 1    
    79   40  106 1    
    80   41  107 1    
    81   41  108 1    
    82   41  109 1    
    83   42   43 2    
    84   42   44 am   BACKBONE|DICT|INTERRES
    85   44   45 1    
    86   44  110 1    
    87   45   46 1    
    88   45   47 1    
    89   45  111 1    
    90   46  112 1    
    91   46  113 1    
    92   46  114 1    
    93   47   48 2    
    94   47   49 am   BACKBONE|DICT|INTERRES
    95   49   50 1    
    96   49  115 1    
    97   50   51 1    
    98   50   52 1    
    99   50  116 1    
   100   51  117 1    
   101   51  118 1    
   102   51  119 1    
   103   52   53 2    
   104   52   54 am   BACKBONE|DICT|INTERRES
   105   54   55 1    
   106   54  120 1    
   107   55   56 1    
   108   55   57 1    
   109   55  121 1    
   110   56  122 1    
   111   56  123 1    
   112   56  124 1    
   113   57   58 2    
   114   57   59 am   BACKBONE|DICT|INTERRES
   115   59   60 1    
   116   59  125 1    
   117   60   61 1    
   118   60   62 1    
   119   60  126 1    
   120   61  127 1    
   121   61  128 1    
   122   61  129 1    
   123   62   63 2    
   124   62   64 am   BACKBONE|DICT|INTERRES
   125   64   65 1    
   126   64  130 1    
   127   65   66 1    
   128   65   69 1    
   129   65  131 1    
   130   66   67 am   BACKBONE|DICT|INTERRES
   131   66   68 2    
   132   67  132 1    
   133   67  133 1    
   134   69   70 1    
   135   69  134 1    
   136   69  135 1    
   137   70   71 1    
   138   71  136 1    
   139   71  137 1    
@<TRIPOS>SUBSTRUCTURE
     1 UNK         1 GROUP             0       ****    0 ROOT    
