@<TRIPOS>MOLECULE
3R136
137   139    1
SMALL
USER_CHARGES


@<TRIPOS>ATOM
      1 CA         30.3852   26.4633    0.2484 C.3       0 UNK        -0.1979 
      2 C          29.1488   25.5957    0.4054 C.2       0 UNK         0.4864 
      3 O          28.1183   25.8884   -0.2030 O.2       0 UNK        -0.5359 
      4 N          29.2337   24.5336    1.2176 N.am      1 UNK        -0.4318 
      5 CA         28.1700   23.5588    1.5157 C.3       1 UNK         0.0824 
      6 C6         28.5956   22.4902    2.5633 C.3       12 UNK        -0.0944 
      7 S7         30.3490   21.9745    2.4577 S.3       12 UNK        -0.2672 
      8 C8         31.0428   22.6806    3.9914 C.3       12 UNK         0.0333 
      9 C9         30.9449   24.2010    4.0286 C.ar      12 UNK        -0.0807 
     10 C10        31.9094   24.9896    3.3942 C.ar      12 UNK        -0.0894 
     11 C11        31.8235   26.3854    3.4368 C.ar      12 UNK        -0.0804 
     12 C12        30.7485   26.9908    4.0962 C.ar      12 UNK        -0.0824 
     13 C13        29.7769   26.2136    4.7319 C.ar      12 UNK        -0.0762 
     14 C14        29.8939   24.8217    4.7113 C.ar      12 UNK        -0.0782 
     15 C15        28.6193   26.8626    5.4781 C.3       12 UNK         0.0230 
     16 S16        27.0166   26.5496    4.6608 S.3       12 UNK        -0.2608 
     17 C17        26.7283   28.0829    3.7102 C.3       12 UNK        -0.0989 
     18 CA         26.9477   27.9028    2.1839 C.3       5 UNK         0.0716 
     19 N          26.1386   26.8499    1.5585 N.am      5 UNK        -0.4135 
     20 C          24.8024   26.7722    1.5092 C.2       4 UNK         0.5031 
     21 O          24.0438   27.5891    2.0349 O.2       4 UNK        -0.5229 
     22 CA         24.2221   25.5599    0.7493 C.3       4 UNK         0.0329 
     23 CB         22.7009   25.6719    0.5094 C.3       4 UNK        -0.2001 
     24 N          24.9211   25.2508   -0.5065 N.am      4 UNK        -0.4303 
     25 C          25.0576   26.0456   -1.5821 C.2       3 UNK         0.5044 
     26 O          24.6243   27.1967   -1.6393 O.2       3 UNK        -0.5152 
     27 CA         25.7986   25.4534   -2.7982 C.3       3 UNK         0.0319 
     28 CB         26.5108   26.5234   -3.6441 C.3       3 UNK        -0.2001 
     29 N          26.7845   24.4609   -2.3749 N.am      3 UNK        -0.4354 
     30 C          26.8472   23.1885   -2.7910 C.2       2 UNK         0.4964 
     31 O          26.1084   22.7122   -3.6533 O.2       2 UNK        -0.5047 
     32 CA         27.8986   22.2769   -2.1232 C.3       2 UNK         0.0288 
     33 CB         29.1260   22.1176   -3.0352 C.3       2 UNK        -0.2113 
     34 N          28.3431   22.7365   -0.8024 N.am      2 UNK        -0.4145 
     35 C          27.5498   22.9000    0.2668 C.2       1 UNK         0.5006 
     36 O          26.3500   22.6189    0.2741 O.2       1 UNK        -0.5103 
     37 C          26.8293   29.2169    1.3881 C.2       5 UNK         0.5055 
     38 O          26.5206   30.2661    1.9579 O.2       5 UNK        -0.5220 
     39 N          27.0874   29.1335    0.0727 N.am      6 UNK        -0.4450 
     40 CA         27.2197   30.2999   -0.8091 C.3       6 UNK         0.0367 
     41 CB         27.2208   29.8509   -2.2772 C.3       6 UNK        -0.1929 
     42 C          28.4850   31.1168   -0.4905 C.2       6 UNK         0.5070 
     43 O          28.4509   32.3460   -0.5530 O.2       6 UNK        -0.5237 
     44 N          29.5596   30.4126   -0.1143 N.am      7 UNK        -0.4739 
     45 CA         30.7260   30.9723    0.5628 C.3       7 UNK         0.0276 
     46 CB         31.9865   30.2164    0.1105 C.3       7 UNK        -0.1927 
     47 C          30.5218   30.8166    2.0763 C.2       7 UNK         0.5013 
     48 O          29.9133   29.8334    2.5067 O.2       7 UNK        -0.5193 
     49 N          31.0432   31.7719    2.8539 N.am      8 UNK        -0.4253 
     50 CA         31.0054   31.7508    4.3176 C.3       8 UNK         0.0242 
     51 CB         31.3974   33.1408    4.8465 C.3       8 UNK        -0.2000 
     52 C          31.9444   30.6795    4.8935 C.2       8 UNK         0.4948 
     53 O          32.9521   30.3493    4.2668 O.2       8 UNK        -0.5275 
     54 N          31.6401   30.2124    6.1132 N.am      9 UNK        -0.4246 
     55 CA         32.3878   29.1841    6.8566 C.3       9 UNK         0.0261 
     56 CB         31.6129   28.8311    8.1367 C.3       9 UNK        -0.1959 
     57 C          33.8577   29.5316    7.1821 C.2       9 UNK         0.5033 
     58 O          34.6080   28.6500    7.6028 O.2       9 UNK        -0.5390 
     59 N          34.2610   30.7868    6.9396 N.am      10 UNK        -0.4215 
     60 CA         35.6468   31.2628    6.9218 C.3       10 UNK         0.0240 
     61 CB         35.6376   32.7981    6.8264 C.3       10 UNK        -0.1982 
     62 C          36.5096   30.6526    5.7935 C.2       10 UNK         0.4970 
     63 O          37.7248   30.8528    5.8084 O.2       10 UNK        -0.4916 
     64 N          35.8884   29.9259    4.8518 N.am      11 UNK        -0.4279 
     65 CA         36.5257   29.1311    3.7892 C.3       11 UNK         0.1003 
     66 C          37.6035   28.1033    4.2540 C.2       11 UNK         0.5709 
     67 N          37.5751   27.6264    5.4937 N.am      11 UNK        -0.7358 
     68 O          38.4809   27.7403    3.4738 O.2       11 UNK        -0.4999 
     69 C69        35.4550   28.4471    2.8937 C.3       12 UNK        -0.0954 
     70 S70        34.3962   27.2721    3.8127 S.3       12 UNK        -0.2268 
     71 C71        32.9009   27.2377    2.7833 C.3       12 UNK         0.0203 
     72 H72        30.3458   27.2982    0.9472 H         1 UNK         0.0888 
     73 H73        30.4433   26.8622   -0.7639 H         1 UNK         0.0888 
     74 H74        31.2946   25.8940    0.4371 H         1 UNK         0.0888 
     75 H75        30.0996   24.3584    1.7111 H         1 UNK         0.3017 
     76 H76        27.3602   24.1359    1.9669 H         1 UNK         0.0873 
     77 H77        28.3928   22.8686    3.5633 H         1 UNK         0.0745 
     78 H78        27.9763   21.5930    2.4957 H         1 UNK         0.0745 
     79 H79        30.5333   22.2430    4.8515 H         1 UNK         0.0705 
     80 H80        32.0883   22.3799    4.0752 H         1 UNK         0.0705 
     81 H81        32.7376   24.5188    2.8817 H         1 UNK         0.1334 
     82 H82        30.6789   28.0681    4.1299 H         1 UNK         0.1417 
     83 H83        29.1530   24.2236    5.2237 H         1 UNK         0.1562 
     84 H84        28.7858   27.9328    5.6076 H         1 UNK         0.0748 
     85 H85        28.5781   26.4457    6.4854 H         1 UNK         0.0748 
     86 H86        27.3826   28.8698    4.0896 H         1 UNK         0.0940 
     87 H87        25.7121   28.4236    3.9142 H         1 UNK         0.0940 
     88 H88        27.9871   27.5961    2.0685 H         1 UNK         0.0703 
     89 H89        26.6718   26.1887    1.0030 H         1 UNK         0.3081 
     90 H90        24.3844   24.6991    1.4000 H         1 UNK         0.0719 
     91 H91        22.4503   26.5412   -0.0995 H         1 UNK         0.0809 
     92 H92        22.3119   24.7864    0.0069 H         1 UNK         0.0809 
     93 H93        22.1617   25.7699    1.4525 H         1 UNK         0.0809 
     94 H94        25.3262   24.3223   -0.5537 H         1 UNK         0.2990 
     95 H95        25.0308   24.9868   -3.4182 H         1 UNK         0.0690 
     96 H96        26.9644   26.0834   -4.5322 H         1 UNK         0.0788 
     97 H97        27.3010   27.0134   -3.0762 H         1 UNK         0.0788 
     98 H98        25.8159   27.2915   -3.9856 H         1 UNK         0.0788 
     99 H99        27.4243   24.7775   -1.6509 H         1 UNK         0.2993 
    100 H100       27.4356   21.2965   -1.9919 H         1 UNK         0.0949 
    101 H101       28.8362   21.7457   -4.0191 H         1 UNK         0.0767 
    102 H102       29.6432   23.0664   -3.1846 H         1 UNK         0.0767 
    103 H103       29.8401   21.4058   -2.6202 H         1 UNK         0.0767 
    104 H104       29.3151   22.9948   -0.7135 H         1 UNK         0.3013 
    105 H105       27.2803   28.2251   -0.3283 H         1 UNK         0.3121 
    106 H106       26.3541   30.9470   -0.6508 H         1 UNK         0.0774 
    107 H107       28.0667   29.2005   -2.5015 H         1 UNK         0.0815 
    108 H108       27.2862   30.7104   -2.9456 H         1 UNK         0.0815 
    109 H109       26.3029   29.3190   -2.5267 H         1 UNK         0.0815 
    110 H110       29.4537   29.4127   -0.0375 H         1 UNK         0.2987 
    111 H111       30.8375   32.0309    0.3170 H         1 UNK         0.0949 
    112 H112       31.9276   29.1522    0.3393 H         1 UNK         0.0806 
    113 H113       32.1451   30.3192   -0.9630 H         1 UNK         0.0806 
    114 H114       32.8753   30.6059    0.6092 H         1 UNK         0.0806 
    115 H115       31.5695   32.5197    2.4266 H         1 UNK         0.3010 
    116 H116       29.9832   31.5261    4.6308 H         1 UNK         0.0829 
    117 H117       30.7307   33.9134    4.4627 H         1 UNK         0.0813 
    118 H118       31.3390   33.1804    5.9351 H         1 UNK         0.0813 
    119 H119       32.4171   33.4079    4.5647 H         1 UNK         0.0813 
    120 H120       30.8126   30.5703    6.5692 H         1 UNK         0.3038 
    121 H121       32.4193   28.2934    6.2254 H         1 UNK         0.0769 
    122 H122       31.5176   29.6910    8.8007 H         1 UNK         0.0811 
    123 H123       32.1185   28.0423    8.6957 H         1 UNK         0.0811 
    124 H124       30.6111   28.4673    7.9072 H         1 UNK         0.0811 
    125 H125       33.5668   31.4288    6.5876 H         1 UNK         0.3204 
    126 H126       36.1097   30.9781    7.8688 H         1 UNK         0.0748 
    127 H127       36.6520   33.1989    6.8551 H         1 UNK         0.0771 
    128 H128       35.1779   33.1416    5.8986 H         1 UNK         0.0771 
    129 H129       35.0929   33.2452    7.6583 H         1 UNK         0.0771 
    130 H130       34.8760   29.8682    4.8732 H         1 UNK         0.2980 
    131 H131       37.0565   29.8502    3.1633 H         1 UNK         0.0545 
    132 H132       38.2761   26.9653    5.7874 H         1 UNK         0.3459 
    133 H133       36.8400   27.9038    6.1264 H         1 UNK         0.3459 
    134 H134       34.8195   29.2109    2.4424 H         1 UNK         0.0616 
    135 H135       35.9235   27.9193    2.0612 H         1 UNK         0.0616 
    136 H136       32.5401   28.2553    2.6285 H         1 UNK         0.0634 
    137 H137       33.1501   26.8395    1.7992 H         1 UNK         0.0634 
@<TRIPOS>BOND
     1    1    2 1    
     2    1   72 1    
     3    1   73 1    
     4    1   74 1    
     5    2    3 2    
     6    2    4 am   BACKBONE|DICT|INTERRES
     7    4    5 1    
     8    4   75 1    
     9    5    6 1    
    10    5   35 1    
    11    5   76 1    
    12    6    7 1    
    13    6   77 1    
    14    6   78 1    
    15    7    8 1    
    16    8    9 1    
    17    8   79 1    
    18    8   80 1    
    19    9   10 ar   
    20    9   14 ar   
    21   10   11 ar   
    22   10   81 1    
    23   11   12 ar   
    24   11   71 1    
    25   12   13 ar   
    26   12   82 1    
    27   13   14 ar   
    28   13   15 1    
    29   14   83 1    
    30   15   16 1    
    31   15   84 1    
    32   15   85 1    
    33   16   17 1    
    34   17   18 1    
    35   17   86 1    
    36   17   87 1    
    37   18   19 1    
    38   18   37 1    
    39   18   88 1    
    40   19   20 am   BACKBONE|DICT|INTERRES
    41   19   89 1    
    42   20   21 2    
    43   20   22 1    
    44   22   23 1    
    45   22   24 1    
    46   22   90 1    
    47   23   91 1    
    48   23   92 1    
    49   23   93 1    
    50   24   25 am   BACKBONE|DICT|INTERRES
    51   24   94 1    
    52   25   26 2    
    53   25   27 1    
    54   27   28 1    
    55   27   29 1    
    56   27   95 1    
    57   28   96 1    
    58   28   97 1    
    59   28   98 1    
    60   29   30 am   BACKBONE|DICT|INTERRES
    61   29   99 1    
    62   30   31 2    
    63   30   32 1    
    64   32   33 1    
    65   32   34 1    
    66   32  100 1    
    67   33  101 1    
    68   33  102 1    
    69   33  103 1    
    70   34   35 am   BACKBONE|DICT|INTERRES
    71   34  104 1    
    72   35   36 2    
    73   37   38 2    
    74   37   39 am   BACKBONE|DICT|INTERRES
    75   39   40 1    
    76   39  105 1    
    77   40   41 1    
    78   40   42 1    
    79   40  106 1    
    80   41  107 1    
    81   41  108 1    
    82   41  109 1    
    83   42   43 2    
    84   42   44 am   BACKBONE|DICT|INTERRES
    85   44   45 1    
    86   44  110 1    
    87   45   46 1    
    88   45   47 1    
    89   45  111 1    
    90   46  112 1    
    91   46  113 1    
    92   46  114 1    
    93   47   48 2    
    94   47   49 am   BACKBONE|DICT|INTERRES
    95   49   50 1    
    96   49  115 1    
    97   50   51 1    
    98   50   52 1    
    99   50  116 1    
   100   51  117 1    
   101   51  118 1    
   102   51  119 1    
   103   52   53 2    
   104   52   54 am   BACKBONE|DICT|INTERRES
   105   54   55 1    
   106   54  120 1    
   107   55   56 1    
   108   55   57 1    
   109   55  121 1    
   110   56  122 1    
   111   56  123 1    
   112   56  124 1    
   113   57   58 2    
   114   57   59 am   BACKBONE|DICT|INTERRES
   115   59   60 1    
   116   59  125 1    
   117   60   61 1    
   118   60   62 1    
   119   60  126 1    
   120   61  127 1    
   121   61  128 1    
   122   61  129 1    
   123   62   63 2    
   124   62   64 am   BACKBONE|DICT|INTERRES
   125   64   65 1    
   126   64  130 1    
   127   65   66 1    
   128   65   69 1    
   129   65  131 1    
   130   66   67 am   BACKBONE|DICT|INTERRES
   131   66   68 2    
   132   67  132 1    
   133   67  133 1    
   134   69   70 1    
   135   69  134 1    
   136   69  135 1    
   137   70   71 1    
   138   71  136 1    
   139   71  137 1    
@<TRIPOS>SUBSTRUCTURE
     1 UNK         1 GROUP             0       ****    0 ROOT    
