@<TRIPOS>MOLECULE
3R136
137   139    1
SMALL
USER_CHARGES


@<TRIPOS>ATOM
      1 CA         31.9226   21.4604   -4.3388 C.3       0 UNK        -0.1979 
      2 C          31.5742   22.6211   -3.4182 C.2       0 UNK         0.4864 
      3 O          31.7233   23.7794   -3.8118 O.2       0 UNK        -0.5359 
      4 N          31.1212   22.3193   -2.1948 N.am      1 UNK        -0.4318 
      5 CA         30.6933   23.3009   -1.1913 C.3       1 UNK         0.0824 
      6 C6         30.6014   22.6736    0.2208 C.3       12 UNK        -0.0944 
      7 S7         32.2384   22.1199    0.8036 S.3       12 UNK        -0.2672 
      8 C8         31.9337   21.8538    2.5821 C.3       12 UNK         0.0333 
      9 C9         31.5481   23.1193    3.3444 C.ar      12 UNK        -0.0807 
     10 C10        32.2341   24.3245    3.1468 C.ar      12 UNK        -0.0894 
     11 C11        31.8797   25.4702    3.8647 C.ar      12 UNK        -0.0804 
     12 C12        30.8437   25.4018    4.7985 C.ar      12 UNK        -0.0824 
     13 C13        30.1593   24.2043    5.0184 C.ar      12 UNK        -0.0762 
     14 C14        30.5115   23.0689    4.2830 C.ar      12 UNK        -0.0782 
     15 C15        29.0664   24.1258    6.0753 C.3       12 UNK         0.0230 
     16 S16        27.4061   24.3982    5.3790 S.3       12 UNK        -0.2608 
     17 C17        27.3985   26.2040    5.1048 C.3       12 UNK        -0.0989 
     18 CA         27.0902   26.5720    3.6256 C.3       5 UNK         0.0716 
     19 N          25.7748   26.0982    3.1755 N.am      5 UNK        -0.4135 
     20 C          24.5768   26.4663    3.6602 C.2       4 UNK         0.5031 
     21 O          24.4321   27.2453    4.6038 O.2       4 UNK        -0.5229 
     22 CA         23.3244   25.8830    2.9663 C.3       4 UNK         0.0329 
     23 CB         22.1232   26.8517    3.0204 C.3       4 UNK        -0.2001 
     24 N          23.5538   25.4330    1.5854 N.am      4 UNK        -0.4303 
     25 C          24.0205   26.1712    0.5687 C.2       3 UNK         0.5044 
     26 O          24.3104   27.3671    0.6532 O.2       3 UNK        -0.5152 
     27 CA         24.2537   25.4272   -0.7553 C.3       3 UNK         0.0319 
     28 CB         23.1618   25.7855   -1.7757 C.3       3 UNK        -0.2001 
     29 N          25.5686   25.7374   -1.3202 N.am      3 UNK        -0.4354 
     30 C          26.7420   25.5112   -0.7130 C.2       2 UNK         0.4964 
     31 O          26.8600   24.9791    0.3952 O.2       2 UNK        -0.5047 
     32 CA         27.9862   26.0257   -1.4540 C.3       2 UNK         0.0288 
     33 CB         28.2705   27.4787   -1.0467 C.3       2 UNK        -0.2113 
     34 N          29.1768   25.2194   -1.1823 N.am      2 UNK        -0.4145 
     35 C          29.3559   23.9566   -1.5918 C.2       1 UNK         0.5006 
     36 O          28.5248   23.3198   -2.2470 O.2       1 UNK        -0.5103 
     37 C          27.3244   28.0739    3.3274 C.2       5 UNK         0.5055 
     38 O          28.2184   28.6749    3.9268 O.2       5 UNK        -0.5220 
     39 N          26.5594   28.6664    2.3950 N.am      6 UNK        -0.4450 
     40 CA         26.6234   30.0859    2.0248 C.3       6 UNK         0.0367 
     41 CB         25.2569   30.5124    1.4572 C.3       6 UNK        -0.1929 
     42 C          27.7877   30.3954    1.0604 C.2       6 UNK         0.5070 
     43 O          27.5784   31.0019    0.0081 O.2       6 UNK        -0.5237 
     44 N          28.9943   29.9486    1.4218 N.am      7 UNK        -0.4739 
     45 CA         30.2259   30.1387    0.6591 C.3       7 UNK         0.0276 
     46 CB         31.1951   28.9956    1.0028 C.3       7 UNK        -0.1927 
     47 C          30.8809   31.4858    0.9921 C.2       7 UNK         0.5013 
     48 O          30.7249   31.9919    2.1063 O.2       7 UNK        -0.5193 
     49 N          31.6792   31.9992    0.0490 N.am      8 UNK        -0.4253 
     50 CA         32.5803   33.1361    0.2492 C.3       8 UNK         0.0242 
     51 CB         32.7431   33.8897   -1.0847 C.3       8 UNK        -0.2000 
     52 C          33.9203   32.6322    0.8181 C.2       8 UNK         0.4948 
     53 O          34.9510   32.7178    0.1474 O.2       8 UNK        -0.5275 
     54 N          33.8687   32.0662    2.0276 N.am      9 UNK        -0.4246 
     55 CA         34.9836   31.4420    2.7324 C.3       9 UNK         0.0261 
     56 CB         35.1243   29.9780    2.2738 C.3       9 UNK        -0.1959 
     57 C          34.7180   31.5204    4.2390 C.2       9 UNK         0.5033 
     58 O          33.5709   31.7234    4.6464 O.2       9 UNK        -0.5390 
     59 N          35.7731   31.3221    5.0414 N.am      10 UNK        -0.4215 
     60 CA         35.7451   31.3748    6.5103 C.3       10 UNK         0.0240 
     61 CB         37.1735   31.1977    7.0514 C.3       10 UNK        -0.1982 
     62 C          34.7907   30.3625    7.1730 C.2       10 UNK         0.4970 
     63 O          34.2970   30.6320    8.2687 O.2       10 UNK        -0.4916 
     64 N          34.5370   29.2360    6.4961 N.am      11 UNK        -0.4279 
     65 CA         33.5160   28.2446    6.8602 C.3       11 UNK         0.1003 
     66 C          32.0438   28.7070    6.6461 C.2       11 UNK         0.5709 
     67 N          31.7723   29.8044    5.9488 N.am      11 UNK        -0.7358 
     68 O          31.1257   28.0585    7.1410 O.2       11 UNK        -0.4999 
     69 C69        33.7998   26.8570    6.2181 C.3       12 UNK        -0.0954 
     70 S70        34.2166   26.8920    4.4365 S.3       12 UNK        -0.2268 
     71 C71        32.5943   26.7901    3.6165 C.3       12 UNK         0.0203 
     72 H72        32.9698   21.5172   -4.6346 H         1 UNK         0.0888 
     73 H73        31.7580   20.4958   -3.8587 H         1 UNK         0.0888 
     74 H74        31.3106   21.4996   -5.2395 H         1 UNK         0.0888 
     75 H75        31.0104   21.3514   -1.9297 H         1 UNK         0.3017 
     76 H76        31.4490   24.0897   -1.1634 H         1 UNK         0.0873 
     77 H77        30.2076   23.3996    0.9350 H         1 UNK         0.0745 
     78 H78        29.9127   21.8265    0.2310 H         1 UNK         0.0745 
     79 H79        32.8379   21.4418    3.0318 H         1 UNK         0.0705 
     80 H80        31.1618   21.0895    2.6864 H         1 UNK         0.0705 
     81 H81        33.0431   24.3742    2.4309 H         1 UNK         0.1334 
     82 H82        30.5782   26.2836    5.3626 H         1 UNK         0.1417 
     83 H83        29.9830   22.1406    4.4541 H         1 UNK         0.1562 
     84 H84        29.2527   24.8450    6.8748 H         1 UNK         0.0748 
     85 H85        29.0874   23.1426    6.5480 H         1 UNK         0.0748 
     86 H86        28.3586   26.6145    5.4151 H         1 UNK         0.0940 
     87 H87        26.6689   26.6533    5.7795 H         1 UNK         0.0940 
     88 H88        27.8181   26.0492    3.0026 H         1 UNK         0.0703 
     89 H89        25.8000   25.4692    2.3824 H         1 UNK         0.3081 
     90 H90        23.0566   24.9922    3.5363 H         1 UNK         0.0719 
     91 H91        22.3457   27.7986    2.5271 H         1 UNK         0.0809 
     92 H92        21.2441   26.4219    2.5404 H         1 UNK         0.0809 
     93 H93        21.8470   27.0796    4.0507 H         1 UNK         0.0809 
     94 H94        23.3691   24.4536    1.4144 H         1 UNK         0.2990 
     95 H95        24.2192   24.3511   -0.5729 H         1 UNK         0.0690 
     96 H96        23.2891   25.2322   -2.7065 H         1 UNK         0.0788 
     97 H97        23.1659   26.8504   -2.0133 H         1 UNK         0.0788 
     98 H98        22.1712   25.5425   -1.3887 H         1 UNK         0.0788 
     99 H99        25.5681   26.2208   -2.2065 H         1 UNK         0.2993 
    100 H100       27.7956   25.9901   -2.5290 H         1 UNK         0.0949 
    101 H101       28.4601   27.5571    0.0239 H         1 UNK         0.0767 
    102 H102       29.1343   27.8825   -1.5750 H         1 UNK         0.0767 
    103 H103       27.4219   28.1262   -1.2728 H         1 UNK         0.0767 
    104 H104       29.8921   25.6537   -0.6188 H         1 UNK         0.3013 
    105 H105       25.8631   28.1124    1.9068 H         1 UNK         0.3121 
    106 H106       26.7987   30.6727    2.9291 H         1 UNK         0.0774 
    107 H107       25.2351   31.5833    1.2513 H         1 UNK         0.0815 
    108 H108       25.0305   29.9958    0.5237 H         1 UNK         0.0815 
    109 H109       24.4507   30.3013    2.1600 H         1 UNK         0.0815 
    110 H110       29.0771   29.5168    2.3370 H         1 UNK         0.2987 
    111 H111       29.9976   30.1045   -0.4087 H         1 UNK         0.0949 
    112 H112       31.4909   29.0344    2.0514 H         1 UNK         0.0806 
    113 H113       30.7514   28.0183    0.8148 H         1 UNK         0.0806 
    114 H114       32.1065   29.0579    0.4066 H         1 UNK         0.0806 
    115 H115       31.7840   31.4991   -0.8226 H         1 UNK         0.3010 
    116 H116       32.1504   33.8304    0.9750 H         1 UNK         0.0829 
    117 H117       31.7856   34.2650   -1.4464 H         1 UNK         0.0813 
    118 H118       33.4037   34.7499   -0.9678 H         1 UNK         0.0813 
    119 H119       33.1692   33.2543   -1.8621 H         1 UNK         0.0813 
    120 H120       32.9936   32.0682    2.5436 H         1 UNK         0.3038 
    121 H121       35.9036   31.9896    2.5164 H         1 UNK         0.0769 
    122 H122       34.2155   29.4076    2.4705 H         1 UNK         0.0811 
    123 H123       35.9438   29.4753    2.7886 H         1 UNK         0.0811 
    124 H124       35.3305   29.9153    1.2052 H         1 UNK         0.0811 
    125 H125       36.6743   31.1511    4.6175 H         1 UNK         0.3204 
    126 H126       35.3959   32.3709    6.7906 H         1 UNK         0.0748 
    127 H127       37.1894   31.2598    8.1407 H         1 UNK         0.0771 
    128 H128       37.5934   30.2297    6.7745 H         1 UNK         0.0771 
    129 H129       37.8404   31.9744    6.6766 H         1 UNK         0.0771 
    130 H130       34.9835   29.0915    5.6032 H         1 UNK         0.2980 
    131 H131       33.5989   28.0997    7.9391 H         1 UNK         0.0545 
    132 H132       30.8099   30.0753    5.8283 H         1 UNK         0.3459 
    133 H133       32.5063   30.3807    5.5491 H         1 UNK         0.3459 
    134 H134       32.9853   26.1558    6.4018 H         1 UNK         0.0616 
    135 H135       34.6618   26.4172    6.7215 H         1 UNK         0.0616 
    136 H136       32.7462   26.9155    2.5438 H         1 UNK         0.0634 
    137 H137       31.9737   27.6284    3.9337 H         1 UNK         0.0634 
@<TRIPOS>BOND
     1    1    2 1    
     2    1   72 1    
     3    1   73 1    
     4    1   74 1    
     5    2    3 2    
     6    2    4 am   BACKBONE|DICT|INTERRES
     7    4    5 1    
     8    4   75 1    
     9    5    6 1    
    10    5   35 1    
    11    5   76 1    
    12    6    7 1    
    13    6   77 1    
    14    6   78 1    
    15    7    8 1    
    16    8    9 1    
    17    8   79 1    
    18    8   80 1    
    19    9   10 ar   
    20    9   14 ar   
    21   10   11 ar   
    22   10   81 1    
    23   11   12 ar   
    24   11   71 1    
    25   12   13 ar   
    26   12   82 1    
    27   13   14 ar   
    28   13   15 1    
    29   14   83 1    
    30   15   16 1    
    31   15   84 1    
    32   15   85 1    
    33   16   17 1    
    34   17   18 1    
    35   17   86 1    
    36   17   87 1    
    37   18   19 1    
    38   18   37 1    
    39   18   88 1    
    40   19   20 am   BACKBONE|DICT|INTERRES
    41   19   89 1    
    42   20   21 2    
    43   20   22 1    
    44   22   23 1    
    45   22   24 1    
    46   22   90 1    
    47   23   91 1    
    48   23   92 1    
    49   23   93 1    
    50   24   25 am   BACKBONE|DICT|INTERRES
    51   24   94 1    
    52   25   26 2    
    53   25   27 1    
    54   27   28 1    
    55   27   29 1    
    56   27   95 1    
    57   28   96 1    
    58   28   97 1    
    59   28   98 1    
    60   29   30 am   BACKBONE|DICT|INTERRES
    61   29   99 1    
    62   30   31 2    
    63   30   32 1    
    64   32   33 1    
    65   32   34 1    
    66   32  100 1    
    67   33  101 1    
    68   33  102 1    
    69   33  103 1    
    70   34   35 am   BACKBONE|DICT|INTERRES
    71   34  104 1    
    72   35   36 2    
    73   37   38 2    
    74   37   39 am   BACKBONE|DICT|INTERRES
    75   39   40 1    
    76   39  105 1    
    77   40   41 1    
    78   40   42 1    
    79   40  106 1    
    80   41  107 1    
    81   41  108 1    
    82   41  109 1    
    83   42   43 2    
    84   42   44 am   BACKBONE|DICT|INTERRES
    85   44   45 1    
    86   44  110 1    
    87   45   46 1    
    88   45   47 1    
    89   45  111 1    
    90   46  112 1    
    91   46  113 1    
    92   46  114 1    
    93   47   48 2    
    94   47   49 am   BACKBONE|DICT|INTERRES
    95   49   50 1    
    96   49  115 1    
    97   50   51 1    
    98   50   52 1    
    99   50  116 1    
   100   51  117 1    
   101   51  118 1    
   102   51  119 1    
   103   52   53 2    
   104   52   54 am   BACKBONE|DICT|INTERRES
   105   54   55 1    
   106   54  120 1    
   107   55   56 1    
   108   55   57 1    
   109   55  121 1    
   110   56  122 1    
   111   56  123 1    
   112   56  124 1    
   113   57   58 2    
   114   57   59 am   BACKBONE|DICT|INTERRES
   115   59   60 1    
   116   59  125 1    
   117   60   61 1    
   118   60   62 1    
   119   60  126 1    
   120   61  127 1    
   121   61  128 1    
   122   61  129 1    
   123   62   63 2    
   124   62   64 am   BACKBONE|DICT|INTERRES
   125   64   65 1    
   126   64  130 1    
   127   65   66 1    
   128   65   69 1    
   129   65  131 1    
   130   66   67 am   BACKBONE|DICT|INTERRES
   131   66   68 2    
   132   67  132 1    
   133   67  133 1    
   134   69   70 1    
   135   69  134 1    
   136   69  135 1    
   137   70   71 1    
   138   71  136 1    
   139   71  137 1    
@<TRIPOS>SUBSTRUCTURE
     1 UNK         1 GROUP             0       ****    0 ROOT    
