@<TRIPOS>MOLECULE
3R136
137   139    1
SMALL
USER_CHARGES


@<TRIPOS>ATOM
      1 CA         28.7781   28.2499   -1.2049 C.3       0 UNK        -0.1979 
      2 C          28.6346   26.9032   -0.5159 C.2       0 UNK         0.4864 
      3 O          27.7118   26.7187    0.2834 O.2       0 UNK        -0.5359 
      4 N          29.5332   25.9606   -0.8360 N.am      1 UNK        -0.4318 
      5 CA         29.5416   24.5731   -0.3531 C.3       1 UNK         0.0824 
      6 C6         30.7541   23.7717   -0.8853 C.3       12 UNK        -0.0944 
      7 S7         32.3515   24.4663   -0.3475 S.3       12 UNK        -0.2672 
      8 C8         33.0200   23.1106    0.6683 C.3       12 UNK         0.0333 
      9 C9         32.5426   23.1969    2.1103 C.ar      12 UNK        -0.0807 
     10 C10        33.3110   23.8911    3.0485 C.ar      12 UNK        -0.0894 
     11 C11        32.9076   23.9761    4.3872 C.ar      12 UNK        -0.0804 
     12 C12        31.7243   23.3404    4.7759 C.ar      12 UNK        -0.0824 
     13 C13        30.9511   22.6300    3.8519 C.ar      12 UNK        -0.0762 
     14 C14        31.3632   22.5648    2.5171 C.ar      12 UNK        -0.0782 
     15 C15        29.7020   21.8886    4.3138 C.3       12 UNK         0.0230 
     16 S16        28.1574   22.6190    3.6831 S.3       12 UNK        -0.2608 
     17 C17        28.1508   24.2721    4.4569 C.3       12 UNK        -0.0989 
     18 CA         27.9884   25.3839    3.3862 C.3       5 UNK         0.0716 
     19 N          26.7099   25.3374    2.6571 N.am      5 UNK        -0.4135 
     20 C          25.5012   25.5933    3.1826 C.2       4 UNK         0.5031 
     21 O          25.2989   25.6969    4.3937 O.2       4 UNK        -0.5229 
     22 CA         24.3196   25.8263    2.2233 C.3       4 UNK         0.0329 
     23 CB         23.4595   27.0233    2.6938 C.3       4 UNK        -0.2001 
     24 N          24.7254   26.0239    0.8254 N.am      4 UNK        -0.4303 
     25 C          23.8837   25.9169   -0.2131 C.2       3 UNK         0.5044 
     26 O          22.7009   25.5873   -0.1116 O.2       3 UNK        -0.5152 
     27 CA         24.4551   26.2255   -1.6045 C.3       3 UNK         0.0319 
     28 CB         24.9108   27.6912   -1.7202 C.3       3 UNK        -0.2001 
     29 N          25.5538   25.3245   -1.9463 N.am      3 UNK        -0.4354 
     30 C          25.4061   24.0234   -2.2396 C.2       2 UNK         0.4964 
     31 O          24.3166   23.4524   -2.2976 O.2       2 UNK        -0.5047 
     32 CA         26.6819   23.2170   -2.5400 C.3       2 UNK         0.0288 
     33 CB         26.8489   23.0191   -4.0559 C.3       2 UNK        -0.2113 
     34 N          27.8994   23.8278   -2.0024 N.am      2 UNK        -0.4145 
     35 C          28.2301   23.8463   -0.7032 C.2       1 UNK         0.5006 
     36 O          27.5371   23.3630    0.1915 O.2       1 UNK        -0.5103 
     37 C          28.2374   26.8107    3.9213 C.2       5 UNK         0.5055 
     38 O          28.5426   26.9997    5.1007 O.2       5 UNK        -0.5220 
     39 N          28.0624   27.7913    3.0274 N.am      6 UNK        -0.4450 
     40 CA         28.1261   29.2224    3.3071 C.3       6 UNK         0.0367 
     41 CB         26.6938   29.7824    3.3968 C.3       6 UNK        -0.1929 
     42 C          28.9712   29.9034    2.2244 C.2       6 UNK         0.5070 
     43 O          28.5045   30.8217    1.5472 O.2       6 UNK        -0.5237 
     44 N          30.2056   29.4159    2.0550 N.am      7 UNK        -0.4739 
     45 CA         31.2151   29.9491    1.1399 C.3       7 UNK         0.0276 
     46 CB         32.2869   28.8704    0.9001 C.3       7 UNK        -0.1927 
     47 C          31.8076   31.2656    1.6776 C.2       7 UNK         0.5013 
     48 O          32.9566   31.2919    2.1267 O.2       7 UNK        -0.5193 
     49 N          30.9883   32.3266    1.6453 N.am      8 UNK        -0.4253 
     50 CA         31.2668   33.6827    2.1275 C.3       8 UNK         0.0242 
     51 CB         32.2678   34.3898    1.1833 C.3       8 UNK        -0.2000 
     52 C          31.6854   33.6677    3.6110 C.2       8 UNK         0.4948 
     53 O          30.9217   33.1739    4.4420 O.2       8 UNK        -0.5275 
     54 N          32.8833   34.1827    3.9101 N.am      9 UNK        -0.4246 
     55 CA         33.5222   34.1134    5.2252 C.3       9 UNK         0.0261 
     56 CB         34.1300   35.4905    5.5470 C.3       9 UNK        -0.1959 
     57 C          34.6014   33.0147    5.2932 C.2       9 UNK         0.5033 
     58 O          35.2026   32.8448    6.3553 O.2       9 UNK        -0.5390 
     59 N          34.8627   32.3094    4.1812 N.am      10 UNK        -0.4215 
     60 CA         35.9114   31.2915    4.0837 C.3       10 UNK         0.0240 
     61 CB         36.3645   31.1530    2.6205 C.3       10 UNK        -0.1982 
     62 C          35.4669   29.9322    4.6427 C.2       10 UNK         0.4970 
     63 O          36.2941   29.2285    5.2230 O.2       10 UNK        -0.4916 
     64 N          34.1862   29.5911    4.4643 N.am      11 UNK        -0.4279 
     65 CA         33.5777   28.3344    4.9146 C.3       11 UNK         0.1003 
     66 C          32.0440   28.4846    5.0950 C.2       11 UNK         0.5709 
     67 N          31.3638   27.4272    5.5128 N.am      11 UNK        -0.7358 
     68 O          31.4609   29.5360    4.8441 O.2       11 UNK        -0.4999 
     69 C69        33.9670   27.1335    3.9953 C.3       12 UNK        -0.0954 
     70 S70        34.9830   25.8857    4.8524 S.3       12 UNK        -0.2268 
     71 C71        33.7320   24.6983    5.4566 C.3       12 UNK         0.0203 
     72 H72        28.4049   29.0485   -0.5659 H         1 UNK         0.0888 
     73 H73        29.8183   28.4659   -1.4468 H         1 UNK         0.0888 
     74 H74        28.1999   28.2614   -2.1281 H         1 UNK         0.0888 
     75 H75        30.2793   26.1927   -1.4764 H         1 UNK         0.3017 
     76 H76        29.6197   24.6016    0.7328 H         1 UNK         0.0873 
     77 H77        30.7561   23.7494   -1.9767 H         1 UNK         0.0745 
     78 H78        30.6882   22.7293   -0.5689 H         1 UNK         0.0745 
     79 H79        32.7648   22.1427    0.2345 H         1 UNK         0.0705 
     80 H80        34.1093   23.1669    0.6392 H         1 UNK         0.0705 
     81 H81        34.2298   24.3585    2.7243 H         1 UNK         0.1334 
     82 H82        31.4140   23.3812    5.8114 H         1 UNK         0.1417 
     83 H83        30.7705   22.0109    1.8020 H         1 UNK         0.1562 
     84 H84        29.6537   21.8470    5.4031 H         1 UNK         0.0748 
     85 H85        29.7601   20.8530    3.9758 H         1 UNK         0.0748 
     86 H86        29.0786   24.4124    5.0127 H         1 UNK         0.0940 
     87 H87        27.3527   24.3152    5.1988 H         1 UNK         0.0940 
     88 H88        28.7711   25.2282    2.6467 H         1 UNK         0.0703 
     89 H89        26.7985   25.2121    1.6573 H         1 UNK         0.3081 
     90 H90        23.7113   24.9211    2.2765 H         1 UNK         0.0719 
     91 H91        22.5699   27.1545    2.0784 H         1 UNK         0.0809 
     92 H92        24.0255   27.9550    2.6649 H         1 UNK         0.0809 
     93 H93        23.1095   26.8857    3.7177 H         1 UNK         0.0809 
     94 H94        25.6803   26.3193    0.6518 H         1 UNK         0.2990 
     95 H95        23.6558   26.0724   -2.3331 H         1 UNK         0.0690 
     96 H96        25.2654   27.9172   -2.7260 H         1 UNK         0.0788 
     97 H97        25.7100   27.9355   -1.0212 H         1 UNK         0.0788 
     98 H98        24.0827   28.3697   -1.5111 H         1 UNK         0.0788 
     99 H99        26.4871   25.7038   -1.9034 H         1 UNK         0.2993 
    100 H100       26.5593   22.2349   -2.0774 H         1 UNK         0.0949 
    101 H101       27.7074   22.3860   -4.2816 H         1 UNK         0.0767 
    102 H102       25.9707   22.5347   -4.4856 H         1 UNK         0.0767 
    103 H103       26.9840   23.9686   -4.5757 H         1 UNK         0.0767 
    104 H104       28.5212   24.2635   -2.6683 H         1 UNK         0.3013 
    105 H105       27.8590   27.5335    2.0646 H         1 UNK         0.3121 
    106 H106       28.6291   29.4049    4.2594 H         1 UNK         0.0774 
    107 H107       26.7049   30.8498    3.6207 H         1 UNK         0.0815 
    108 H108       26.1498   29.6483    2.4609 H         1 UNK         0.0815 
    109 H109       26.1262   29.2905    4.1870 H         1 UNK         0.0815 
    110 H110       30.5188   28.7083    2.7040 H         1 UNK         0.2987 
    111 H111       30.7430   30.1709    0.1808 H         1 UNK         0.0949 
    112 H112       32.8007   28.6022    1.8220 H         1 UNK         0.0806 
    113 H113       31.8541   27.9616    0.4813 H         1 UNK         0.0806 
    114 H114       33.0439   29.2234    0.1986 H         1 UNK         0.0806 
    115 H115       30.0284   32.1448    1.3675 H         1 UNK         0.3010 
    116 H116       30.3237   34.2293    2.0832 H         1 UNK         0.0829 
    117 H117       31.8865   34.4110    0.1622 H         1 UNK         0.0813 
    118 H118       32.4289   35.4275    1.4787 H         1 UNK         0.0813 
    119 H119       33.2375   33.8910    1.1560 H         1 UNK         0.0813 
    120 H120       33.4334   34.5801    3.1616 H         1 UNK         0.3038 
    121 H121       32.7820   33.8824    5.9942 H         1 UNK         0.0769 
    122 H122       34.5802   35.4986    6.5407 H         1 UNK         0.0811 
    123 H123       33.3698   36.2718    5.5332 H         1 UNK         0.0811 
    124 H124       34.9084   35.7663    4.8345 H         1 UNK         0.0811 
    125 H125       34.2593   32.4124    3.3727 H         1 UNK         0.3204 
    126 H126       36.7742   31.6221    4.6666 H         1 UNK         0.0748 
    127 H127       37.1830   30.4371    2.5338 H         1 UNK         0.0771 
    128 H128       35.5586   30.8025    1.9749 H         1 UNK         0.0771 
    129 H129       36.7227   32.1033    2.2242 H         1 UNK         0.0771 
    130 H130       33.5580   30.2275    3.9856 H         1 UNK         0.2980 
    131 H131       33.9482   28.1603    5.9266 H         1 UNK         0.0545 
    132 H132       30.3530   27.4801    5.5900 H         1 UNK         0.3459 
    133 H133       31.8308   26.5608    5.7178 H         1 UNK         0.3459 
    134 H134       33.0964   26.6495    3.5504 H         1 UNK         0.0616 
    135 H135       34.5515   27.4747    3.1393 H         1 UNK         0.0616 
    136 H136       34.2506   23.9423    6.0474 H         1 UNK         0.0634 
    137 H137       33.0698   25.2191    6.1483 H         1 UNK         0.0634 
@<TRIPOS>BOND
     1    1    2 1    
     2    1   72 1    
     3    1   73 1    
     4    1   74 1    
     5    2    3 2    
     6    2    4 am   BACKBONE|DICT|INTERRES
     7    4    5 1    
     8    4   75 1    
     9    5    6 1    
    10    5   35 1    
    11    5   76 1    
    12    6    7 1    
    13    6   77 1    
    14    6   78 1    
    15    7    8 1    
    16    8    9 1    
    17    8   79 1    
    18    8   80 1    
    19    9   10 ar   
    20    9   14 ar   
    21   10   11 ar   
    22   10   81 1    
    23   11   12 ar   
    24   11   71 1    
    25   12   13 ar   
    26   12   82 1    
    27   13   14 ar   
    28   13   15 1    
    29   14   83 1    
    30   15   16 1    
    31   15   84 1    
    32   15   85 1    
    33   16   17 1    
    34   17   18 1    
    35   17   86 1    
    36   17   87 1    
    37   18   19 1    
    38   18   37 1    
    39   18   88 1    
    40   19   20 am   BACKBONE|DICT|INTERRES
    41   19   89 1    
    42   20   21 2    
    43   20   22 1    
    44   22   23 1    
    45   22   24 1    
    46   22   90 1    
    47   23   91 1    
    48   23   92 1    
    49   23   93 1    
    50   24   25 am   BACKBONE|DICT|INTERRES
    51   24   94 1    
    52   25   26 2    
    53   25   27 1    
    54   27   28 1    
    55   27   29 1    
    56   27   95 1    
    57   28   96 1    
    58   28   97 1    
    59   28   98 1    
    60   29   30 am   BACKBONE|DICT|INTERRES
    61   29   99 1    
    62   30   31 2    
    63   30   32 1    
    64   32   33 1    
    65   32   34 1    
    66   32  100 1    
    67   33  101 1    
    68   33  102 1    
    69   33  103 1    
    70   34   35 am   BACKBONE|DICT|INTERRES
    71   34  104 1    
    72   35   36 2    
    73   37   38 2    
    74   37   39 am   BACKBONE|DICT|INTERRES
    75   39   40 1    
    76   39  105 1    
    77   40   41 1    
    78   40   42 1    
    79   40  106 1    
    80   41  107 1    
    81   41  108 1    
    82   41  109 1    
    83   42   43 2    
    84   42   44 am   BACKBONE|DICT|INTERRES
    85   44   45 1    
    86   44  110 1    
    87   45   46 1    
    88   45   47 1    
    89   45  111 1    
    90   46  112 1    
    91   46  113 1    
    92   46  114 1    
    93   47   48 2    
    94   47   49 am   BACKBONE|DICT|INTERRES
    95   49   50 1    
    96   49  115 1    
    97   50   51 1    
    98   50   52 1    
    99   50  116 1    
   100   51  117 1    
   101   51  118 1    
   102   51  119 1    
   103   52   53 2    
   104   52   54 am   BACKBONE|DICT|INTERRES
   105   54   55 1    
   106   54  120 1    
   107   55   56 1    
   108   55   57 1    
   109   55  121 1    
   110   56  122 1    
   111   56  123 1    
   112   56  124 1    
   113   57   58 2    
   114   57   59 am   BACKBONE|DICT|INTERRES
   115   59   60 1    
   116   59  125 1    
   117   60   61 1    
   118   60   62 1    
   119   60  126 1    
   120   61  127 1    
   121   61  128 1    
   122   61  129 1    
   123   62   63 2    
   124   62   64 am   BACKBONE|DICT|INTERRES
   125   64   65 1    
   126   64  130 1    
   127   65   66 1    
   128   65   69 1    
   129   65  131 1    
   130   66   67 am   BACKBONE|DICT|INTERRES
   131   66   68 2    
   132   67  132 1    
   133   67  133 1    
   134   69   70 1    
   135   69  134 1    
   136   69  135 1    
   137   70   71 1    
   138   71  136 1    
   139   71  137 1    
@<TRIPOS>SUBSTRUCTURE
     1 UNK         1 GROUP             0       ****    0 ROOT    
