@<TRIPOS>MOLECULE
3R136
137   139    1
SMALL
USER_CHARGES


@<TRIPOS>ATOM
      1 CA         27.7739   24.3119    3.9754 C.3       0 UNK        -0.1979 
      2 C          27.6261   23.1931    2.9585 C.2       0 UNK         0.4864 
      3 O          26.5583   22.5858    2.8714 O.2       0 UNK        -0.5359 
      4 N          28.6902   22.9116    2.1948 N.am      1 UNK        -0.4318 
      5 CA         28.7504   21.8131    1.2241 C.3       1 UNK         0.0824 
      6 C6         30.1999   21.5022    0.7775 C.3       12 UNK        -0.0944 
      7 S7         31.2246   20.9058    2.1627 S.3       12 UNK        -0.2672 
      8 C8         32.7032   21.9590    2.0236 C.3       12 UNK         0.0333 
      9 C9         32.4162   23.4160    2.3587 C.ar      12 UNK        -0.0807 
     10 C10        31.9836   23.7688    3.6399 C.ar      12 UNK        -0.0894 
     11 C11        31.7557   25.1069    3.9692 C.ar      12 UNK        -0.0804 
     12 C12        31.9613   26.0949    3.0040 C.ar      12 UNK        -0.0824 
     13 C13        32.3970   25.7603    1.7181 C.ar      12 UNK        -0.0762 
     14 C14        32.6249   24.4155    1.4032 C.ar      12 UNK        -0.0782 
     15 C15        32.6782   26.8770    0.7163 C.3       12 UNK         0.0230 
     16 S16        32.2482   26.4915   -1.0181 S.3       12 UNK        -0.2608 
     17 C17        30.4561   26.1485   -0.9741 C.3       12 UNK        -0.0989 
     18 CA         29.6063   27.3176   -0.3995 C.3       5 UNK         0.0716 
     19 N          28.4548   27.6485   -1.2340 N.am      5 UNK        -0.4135 
     20 C          27.9197   28.8745   -1.3365 C.2       4 UNK         0.5031 
     21 O          28.4702   29.9051   -0.9486 O.2       4 UNK        -0.5229 
     22 CA         26.4943   28.9450   -1.9111 C.3       4 UNK         0.0329 
     23 CB         26.5165   28.9032   -3.4473 C.3       4 UNK        -0.2001 
     24 N          25.6697   27.8482   -1.3990 N.am      4 UNK        -0.4303 
     25 C          25.2609   27.7205   -0.1297 C.2       3 UNK         0.5044 
     26 O          25.3417   28.6221    0.7036 O.2       3 UNK        -0.5152 
     27 CA         24.7152   26.3448    0.3021 C.3       3 UNK         0.0319 
     28 CB         23.2383   26.1734   -0.1037 C.3       3 UNK        -0.2001 
     29 N          25.5417   25.2022   -0.1297 N.am      3 UNK        -0.4354 
     30 C          25.7718   24.7631   -1.3773 C.2       2 UNK         0.4964 
     31 O          25.2715   25.2776   -2.3785 O.2       2 UNK        -0.5047 
     32 CA         26.7440   23.5889   -1.5651 C.3       2 UNK         0.0288 
     33 CB         27.6963   23.8143   -2.7566 C.3       2 UNK        -0.2113 
     34 N          27.5293   23.2753   -0.3645 N.am      2 UNK        -0.4145 
     35 C          27.8458   22.0206   -0.0076 C.2       1 UNK         0.5006 
     36 O          27.4625   21.0235   -0.6236 O.2       1 UNK        -0.5103 
     37 C          29.0366   26.9961    0.9918 C.2       5 UNK         0.5055 
     38 O          28.3988   25.9516    1.1577 O.2       5 UNK        -0.5220 
     39 N          29.2381   27.9239    1.9291 N.am      6 UNK        -0.4450 
     40 CA         28.7898   27.9032    3.3162 C.3       6 UNK         0.0367 
     41 CB         27.2730   28.1679    3.3964 C.3       6 UNK        -0.1929 
     42 C          29.6151   28.9536    4.0746 C.2       6 UNK         0.5070 
     43 O          30.5972   29.4579    3.5250 O.2       6 UNK        -0.5237 
     44 N          29.2037   29.3037    5.3012 N.am      7 UNK        -0.4739 
     45 CA         29.8447   30.3264    6.1451 C.3       7 UNK         0.0276 
     46 CB         29.1285   30.3860    7.5029 C.3       7 UNK        -0.1927 
     47 C          29.9166   31.7296    5.5087 C.2       7 UNK         0.5013 
     48 O          30.8241   32.4952    5.8344 O.2       7 UNK        -0.5193 
     49 N          29.0012   32.0192    4.5717 N.am      8 UNK        -0.4253 
     50 CA         29.0164   33.2025    3.7050 C.3       8 UNK         0.0242 
     51 CB         27.6997   33.2586    2.9132 C.3       8 UNK        -0.2000 
     52 C          30.2219   33.2536    2.7427 C.2       8 UNK         0.4948 
     53 O          30.5835   34.3423    2.2961 O.2       8 UNK        -0.5275 
     54 N          30.8338   32.0947    2.4634 N.am      9 UNK        -0.4246 
     55 CA         32.0648   31.9297    1.6922 C.3       9 UNK         0.0261 
     56 CB         31.7955   30.9715    0.5178 C.3       9 UNK        -0.1959 
     57 C          33.1900   31.4332    2.6201 C.2       9 UNK         0.5033 
     58 O          33.9683   30.5558    2.2403 O.2       9 UNK        -0.5390 
     59 N          33.2384   31.9953    3.8365 N.am      10 UNK        -0.4215 
     60 CA         34.2093   31.8041    4.9213 C.3       10 UNK         0.0240 
     61 CB         35.6324   32.1951    4.4762 C.3       10 UNK        -0.1982 
     62 C          34.2068   30.4194    5.5932 C.2       10 UNK         0.4970 
     63 O          34.3675   30.3667    6.8130 O.2       10 UNK        -0.4916 
     64 N          34.0504   29.3383    4.8166 N.am      11 UNK        -0.4279 
     65 CA         34.1684   27.9397    5.2724 C.3       11 UNK         0.1003 
     66 C          35.6125   27.5693    5.7449 C.2       11 UNK         0.5709 
     67 N          36.6493   28.1784    5.1796 N.am      11 UNK        -0.7358 
     68 O          35.8135   26.7271    6.6162 O.2       11 UNK        -0.4999 
     69 C69        33.0311   27.5627    6.2700 C.3       12 UNK        -0.0954 
     70 S70        32.7299   25.7708    6.4652 S.3       12 UNK        -0.2268 
     71 C71        31.3067   25.4759    5.3743 C.3       12 UNK         0.0203 
     72 H72        27.1436   25.1548    3.6957 H         1 UNK         0.0888 
     73 H73        27.4705   23.9678    4.9636 H         1 UNK         0.0888 
     74 H74        28.8045   24.6549    4.0384 H         1 UNK         0.0888 
     75 H75        29.5400   23.4477    2.3034 H         1 UNK         0.3017 
     76 H76        28.3649   20.9235    1.7278 H         1 UNK         0.0873 
     77 H77        30.6560   22.3806    0.3173 H         1 UNK         0.0745 
     78 H78        30.2117   20.7207    0.0148 H         1 UNK         0.0745 
     79 H79        33.1191   21.8591    1.0197 H         1 UNK         0.0705 
     80 H80        33.4651   21.5847    2.7086 H         1 UNK         0.0705 
     81 H81        31.8378   22.9988    4.3855 H         1 UNK         0.1334 
     82 H82        31.8080   27.1322    3.2648 H         1 UNK         0.1417 
     83 H83        32.9841   24.1482    0.4188 H         1 UNK         0.1562 
     84 H84        33.7437   27.1068    0.7582 H         1 UNK         0.0748 
     85 H85        32.1673   27.7913    1.0146 H         1 UNK         0.0748 
     86 H86        30.2929   25.2014   -0.4552 H         1 UNK         0.0940 
     87 H87        30.1751   25.9550   -2.0097 H         1 UNK         0.0940 
     88 H88        30.2381   28.2051   -0.3304 H         1 UNK         0.0703 
     89 H89        27.9006   26.8682   -1.5494 H         1 UNK         0.3081 
     90 H90        26.0473   29.8904   -1.5959 H         1 UNK         0.0719 
     91 H91        27.1225   29.7161   -3.8501 H         1 UNK         0.0809 
     92 H92        26.9318   27.9675   -3.8240 H         1 UNK         0.0809 
     93 H93        25.5133   29.0131   -3.8596 H         1 UNK         0.0809 
     94 H94        25.5194   27.0470   -2.0089 H         1 UNK         0.2990 
     95 H95        24.7530   26.3285    1.3927 H         1 UNK         0.0690 
     96 H96        22.8353   25.2282    0.2599 H         1 UNK         0.0788 
     97 H97        23.1011   26.2026   -1.1849 H         1 UNK         0.0788 
     98 H98        22.6261   26.9708    0.3196 H         1 UNK         0.0788 
     99 H99        26.0147   24.7223    0.6233 H         1 UNK         0.2993 
    100 H100       26.1000   22.7410   -1.8094 H         1 UNK         0.0949 
    101 H101       27.1421   23.9591   -3.6850 H         1 UNK         0.0767 
    102 H102       28.3222   24.6927   -2.6105 H         1 UNK         0.0767 
    103 H103       28.3521   22.9569   -2.9093 H         1 UNK         0.0767 
    104 H104       27.8814   24.0521    0.1859 H         1 UNK         0.3013 
    105 H105       29.8037   28.7359    1.7152 H         1 UNK         0.3121 
    106 H106       29.0173   26.9283    3.7433 H         1 UNK         0.0774 
    107 H107       26.7125   27.4397    2.8111 H         1 UNK         0.0815 
    108 H108       26.9025   28.0968    4.4191 H         1 UNK         0.0815 
    109 H109       27.0168   29.1580    3.0170 H         1 UNK         0.0815 
    110 H110       28.3888   28.8498    5.6889 H         1 UNK         0.2987 
    111 H111       30.8757   30.0119    6.3180 H         1 UNK         0.0949 
    112 H112       29.1694   29.4251    8.0162 H         1 UNK         0.0806 
    113 H113       29.5973   31.1206    8.1595 H         1 UNK         0.0806 
    114 H114       28.0802   30.6673    7.3953 H         1 UNK         0.0806 
    115 H115       28.2853   31.3320    4.3876 H         1 UNK         0.3010 
    116 H116       29.0731   34.0851    4.3457 H         1 UNK         0.0829 
    117 H117       26.8368   33.3031    3.5779 H         1 UNK         0.0813 
    118 H118       27.6633   34.1459    2.2794 H         1 UNK         0.0813 
    119 H119       27.5812   32.3900    2.2635 H         1 UNK         0.0813 
    120 H120       30.5101   31.2457    2.9206 H         1 UNK         0.3038 
    121 H121       32.3929   32.8866    1.2816 H         1 UNK         0.0769 
    122 H122       32.6866   30.8381   -0.0969 H         1 UNK         0.0811 
    123 H123       31.0067   31.3520   -0.1316 H         1 UNK         0.0811 
    124 H124       31.4892   29.9890    0.8715 H         1 UNK         0.0811 
    125 H125       32.4907   32.6380    4.0648 H         1 UNK         0.3204 
    126 H126       33.9076   32.5129    5.6944 H         1 UNK         0.0748 
    127 H127       36.3310   32.1397    5.3123 H         1 UNK         0.0771 
    128 H128       36.0122   31.5371    3.6940 H         1 UNK         0.0771 
    129 H129       35.6621   33.2169    4.0977 H         1 UNK         0.0771 
    130 H130       33.9599   29.4925    3.8156 H         1 UNK         0.2980 
    131 H131       34.0204   27.3413    4.3748 H         1 UNK         0.0545 
    132 H132       37.5818   27.9417    5.4797 H         1 UNK         0.3459 
    133 H133       36.5102   28.8659    4.4568 H         1 UNK         0.3459 
    134 H134       33.2422   27.9741    7.2580 H         1 UNK         0.0616 
    135 H135       32.0981   28.0278    5.9531 H         1 UNK         0.0616 
    136 H136       30.7151   24.6616    5.7953 H         1 UNK         0.0634 
    137 H137       30.6515   26.3462    5.3625 H         1 UNK         0.0634 
@<TRIPOS>BOND
     1    1    2 1    
     2    1   72 1    
     3    1   73 1    
     4    1   74 1    
     5    2    3 2    
     6    2    4 am   BACKBONE|DICT|INTERRES
     7    4    5 1    
     8    4   75 1    
     9    5    6 1    
    10    5   35 1    
    11    5   76 1    
    12    6    7 1    
    13    6   77 1    
    14    6   78 1    
    15    7    8 1    
    16    8    9 1    
    17    8   79 1    
    18    8   80 1    
    19    9   10 ar   
    20    9   14 ar   
    21   10   11 ar   
    22   10   81 1    
    23   11   12 ar   
    24   11   71 1    
    25   12   13 ar   
    26   12   82 1    
    27   13   14 ar   
    28   13   15 1    
    29   14   83 1    
    30   15   16 1    
    31   15   84 1    
    32   15   85 1    
    33   16   17 1    
    34   17   18 1    
    35   17   86 1    
    36   17   87 1    
    37   18   19 1    
    38   18   37 1    
    39   18   88 1    
    40   19   20 am   BACKBONE|DICT|INTERRES
    41   19   89 1    
    42   20   21 2    
    43   20   22 1    
    44   22   23 1    
    45   22   24 1    
    46   22   90 1    
    47   23   91 1    
    48   23   92 1    
    49   23   93 1    
    50   24   25 am   BACKBONE|DICT|INTERRES
    51   24   94 1    
    52   25   26 2    
    53   25   27 1    
    54   27   28 1    
    55   27   29 1    
    56   27   95 1    
    57   28   96 1    
    58   28   97 1    
    59   28   98 1    
    60   29   30 am   BACKBONE|DICT|INTERRES
    61   29   99 1    
    62   30   31 2    
    63   30   32 1    
    64   32   33 1    
    65   32   34 1    
    66   32  100 1    
    67   33  101 1    
    68   33  102 1    
    69   33  103 1    
    70   34   35 am   BACKBONE|DICT|INTERRES
    71   34  104 1    
    72   35   36 2    
    73   37   38 2    
    74   37   39 am   BACKBONE|DICT|INTERRES
    75   39   40 1    
    76   39  105 1    
    77   40   41 1    
    78   40   42 1    
    79   40  106 1    
    80   41  107 1    
    81   41  108 1    
    82   41  109 1    
    83   42   43 2    
    84   42   44 am   BACKBONE|DICT|INTERRES
    85   44   45 1    
    86   44  110 1    
    87   45   46 1    
    88   45   47 1    
    89   45  111 1    
    90   46  112 1    
    91   46  113 1    
    92   46  114 1    
    93   47   48 2    
    94   47   49 am   BACKBONE|DICT|INTERRES
    95   49   50 1    
    96   49  115 1    
    97   50   51 1    
    98   50   52 1    
    99   50  116 1    
   100   51  117 1    
   101   51  118 1    
   102   51  119 1    
   103   52   53 2    
   104   52   54 am   BACKBONE|DICT|INTERRES
   105   54   55 1    
   106   54  120 1    
   107   55   56 1    
   108   55   57 1    
   109   55  121 1    
   110   56  122 1    
   111   56  123 1    
   112   56  124 1    
   113   57   58 2    
   114   57   59 am   BACKBONE|DICT|INTERRES
   115   59   60 1    
   116   59  125 1    
   117   60   61 1    
   118   60   62 1    
   119   60  126 1    
   120   61  127 1    
   121   61  128 1    
   122   61  129 1    
   123   62   63 2    
   124   62   64 am   BACKBONE|DICT|INTERRES
   125   64   65 1    
   126   64  130 1    
   127   65   66 1    
   128   65   69 1    
   129   65  131 1    
   130   66   67 am   BACKBONE|DICT|INTERRES
   131   66   68 2    
   132   67  132 1    
   133   67  133 1    
   134   69   70 1    
   135   69  134 1    
   136   69  135 1    
   137   70   71 1    
   138   71  136 1    
   139   71  137 1    
@<TRIPOS>SUBSTRUCTURE
     1 UNK         1 GROUP             0       ****    0 ROOT    
