@<TRIPOS>MOLECULE
3R136
137   139    1
SMALL
USER_CHARGES


@<TRIPOS>ATOM
      1 CA         29.9078   28.6566   -0.7660 C.3       0 UNK        -0.1979 
      2 C          29.4042   27.2506   -0.4842 C.2       0 UNK         0.4864 
      3 O          28.2291   27.0779   -0.1580 O.2       0 UNK        -0.5359 
      4 N          30.2759   26.2427   -0.6305 N.am      1 UNK        -0.4318 
      5 CA         29.9981   24.8177   -0.3988 C.3       1 UNK         0.0824 
      6 C6         31.2341   23.9232   -0.6764 C.3       12 UNK        -0.0944 
      7 S7         32.7566   24.5075    0.1451 S.3       12 UNK        -0.2672 
      8 C8         33.0192   23.2403    1.4228 C.3       12 UNK         0.0333 
      9 C9         32.1150   23.4550    2.6264 C.ar      12 UNK        -0.0807 
     10 C10        32.4497   24.4170    3.5840 C.ar      12 UNK        -0.0894 
     11 C11        31.6490   24.6041    4.7141 C.ar      12 UNK        -0.0804 
     12 C12        30.5063   23.8175    4.8840 C.ar      12 UNK        -0.0824 
     13 C13        30.1632   22.8483    3.9351 C.ar      12 UNK        -0.0762 
     14 C14        30.9686   22.6746    2.8049 C.ar      12 UNK        -0.0782 
     15 C15        28.9482   21.9570    4.1530 C.3       12 UNK         0.0230 
     16 S16        27.5402   22.4275    3.1004 S.3       12 UNK        -0.2608 
     17 C17        27.0933   24.0647    3.7727 C.3       12 UNK        -0.0989 
     18 CA         27.1459   25.1662    2.6791 C.3       5 UNK         0.0716 
     19 N          26.1978   24.9249    1.5832 N.am      5 UNK        -0.4135 
     20 C          24.8586   24.9417    1.6746 C.2       4 UNK         0.5031 
     21 O          24.2386   25.1890    2.7113 O.2       4 UNK        -0.5229 
     22 CA         24.0836   24.6116    0.3838 C.3       4 UNK         0.0329 
     23 CB         22.5612   24.8347    0.5142 C.3       4 UNK        -0.2001 
     24 N          24.6112   25.3137   -0.7897 N.am      4 UNK        -0.4303 
     25 C          24.7192   26.6382   -0.9774 C.2       3 UNK         0.5044 
     26 O          24.3276   27.4812   -0.1695 O.2       3 UNK        -0.5152 
     27 CA         25.3886   27.0867   -2.2926 C.3       3 UNK         0.0319 
     28 CB         25.8490   28.5564   -2.2534 C.3       3 UNK        -0.2001 
     29 N          26.5355   26.2362   -2.6241 N.am      3 UNK        -0.4354 
     30 C          26.4769   25.0958   -3.3270 C.2       2 UNK         0.4964 
     31 O          25.4338   24.6520   -3.8064 O.2       2 UNK        -0.5047 
     32 CA         27.7757   24.2882   -3.5010 C.3       2 UNK         0.0288 
     33 CB         28.3364   24.4758   -4.9203 C.3       2 UNK        -0.2113 
     34 N          28.8205   24.6192   -2.5295 N.am      2 UNK        -0.4145 
     35 C          28.7891   24.3241   -1.2209 C.2       1 UNK         0.5006 
     36 O          27.8502   23.7537   -0.6621 O.2       1 UNK        -0.5103 
     37 C          27.0030   26.5930    3.2524 C.2       5 UNK         0.5055 
     38 O          26.8356   26.7643    4.4627 O.2       5 UNK        -0.5220 
     39 N          27.0582   27.5958    2.3667 N.am      6 UNK        -0.4450 
     40 CA         27.0519   29.0114    2.7283 C.3       6 UNK         0.0367 
     41 CB         26.6930   29.8509    1.4920 C.3       6 UNK        -0.1929 
     42 C          28.4238   29.4241    3.2798 C.2       6 UNK         0.5070 
     43 O          29.4514   29.0024    2.7441 O.2       6 UNK        -0.5237 
     44 N          28.4278   30.2796    4.3087 N.am      7 UNK        -0.4739 
     45 CA         29.6326   30.7800    4.9789 C.3       7 UNK         0.0276 
     46 CB         29.2678   31.2160    6.4100 C.3       7 UNK        -0.1927 
     47 C          30.3388   31.8925    4.1782 C.2       7 UNK         0.5013 
     48 O          30.5832   32.9800    4.7053 O.2       7 UNK        -0.5193 
     49 N          30.6613   31.6054    2.9116 N.am      8 UNK        -0.4253 
     50 CA         31.3365   32.5010    1.9699 C.3       8 UNK         0.0242 
     51 CB         31.0363   32.0300    0.5348 C.3       8 UNK        -0.2000 
     52 C          32.8473   32.5866    2.2577 C.2       8 UNK         0.4948 
     53 O          33.6584   32.1535    1.4369 O.2       8 UNK        -0.5275 
     54 N          33.1950   33.0996    3.4463 N.am      9 UNK        -0.4246 
     55 CA         34.5338   33.3022    4.0237 C.3       9 UNK         0.0261 
     56 CB         35.3718   34.2754    3.1721 C.3       9 UNK        -0.1959 
     57 C          35.3237   32.0125    4.3193 C.2       9 UNK         0.5033 
     58 O          35.9572   31.9302    5.3723 O.2       9 UNK        -0.5390 
     59 N          35.2618   31.0266    3.4148 N.am      10 UNK        -0.4215 
     60 CA         35.9555   29.7345    3.4751 C.3       10 UNK         0.0240 
     61 CB         35.6222   28.9279    2.2091 C.3       10 UNK        -0.1982 
     62 C          35.6516   28.9003    4.7326 C.2       10 UNK         0.4970 
     63 O          36.5221   28.1536    5.1817 O.2       10 UNK        -0.4916 
     64 N          34.4396   29.0518    5.2797 N.am      11 UNK        -0.4279 
     65 CA         34.0075   28.4313    6.5406 C.3       11 UNK         0.1003 
     66 C          34.5528   29.1332    7.8201 C.2       11 UNK         0.5709 
     67 N          35.2377   30.2684    7.7316 N.am      11 UNK        -0.7358 
     68 O          34.3586   28.6275    8.9230 O.2       11 UNK        -0.4999 
     69 C69        32.4655   28.2615    6.6043 C.3       12 UNK        -0.0954 
     70 S70        31.7882   27.3293    5.1892 S.3       12 UNK        -0.2268 
     71 C71        32.0462   25.6257    5.7688 C.3       12 UNK         0.0203 
     72 H72        29.7868   29.2757    0.1207 H         1 UNK         0.0888 
     73 H73        30.9611   28.6660   -1.0455 H         1 UNK         0.0888 
     74 H74        29.3343   29.1059   -1.5761 H         1 UNK         0.0888 
     75 H75        31.2341   26.4513   -0.8740 H         1 UNK         0.3017 
     76 H76        29.7437   24.7120    0.6566 H         1 UNK         0.0873 
     77 H77        31.0289   22.8941   -0.3759 H         1 UNK         0.0745 
     78 H78        31.4500   23.8828   -1.7458 H         1 UNK         0.0745 
     79 H79        32.8790   22.2453    0.9974 H         1 UNK         0.0705 
     80 H80        34.0607   23.2838    1.7452 H         1 UNK         0.0705 
     81 H81        33.3384   25.0196    3.4525 H         1 UNK         0.1334 
     82 H82        29.8934   23.9483    5.7653 H         1 UNK         0.1417 
     83 H83        30.7078   21.9211    2.0740 H         1 UNK         0.1562 
     84 H84        28.6368   21.9723    5.1988 H         1 UNK         0.0748 
     85 H85        29.2175   20.9225    3.9346 H         1 UNK         0.0748 
     86 H86        27.7636   24.3121    4.5961 H         1 UNK         0.0940 
     87 H87        26.0985   24.0008    4.2163 H         1 UNK         0.0940 
     88 H88        28.1408   25.1360    2.2354 H         1 UNK         0.0703 
     89 H89        26.6200   24.6861    0.6919 H         1 UNK         0.3081 
     90 H90        24.2444   23.5480    0.2007 H         1 UNK         0.0719 
     91 H91        22.3222   25.8735    0.7445 H         1 UNK         0.0809 
     92 H92        22.0403   24.5661   -0.4047 H         1 UNK         0.0809 
     93 H93        22.1436   24.2209    1.3133 H         1 UNK         0.0809 
     94 H94        24.9566   24.7209   -1.5331 H         1 UNK         0.2990 
     95 H95        24.6347   27.0001   -3.0778 H         1 UNK         0.0690 
     96 H96        26.3147   28.8520   -3.1935 H         1 UNK         0.0788 
     97 H97        26.5670   28.7330   -1.4528 H         1 UNK         0.0788 
     98 H98        25.0052   29.2271   -2.0868 H         1 UNK         0.0788 
     99 H99        27.4068   26.4846   -2.1740 H         1 UNK         0.2993 
    100 H100       27.5181   23.2347   -3.3700 H         1 UNK         0.0949 
    101 H101       27.5943   24.2048   -5.6729 H         1 UNK         0.0767 
    102 H102       28.6266   25.5107   -5.1069 H         1 UNK         0.0767 
    103 H103       29.2097   23.8451   -5.0892 H         1 UNK         0.0767 
    104 H104       29.6231   25.1184   -2.8852 H         1 UNK         0.3013 
    105 H105       27.2927   27.3791    1.3987 H         1 UNK         0.3121 
    106 H106       26.2897   29.1745    3.4933 H         1 UNK         0.0774 
    107 H107       26.6526   30.9127    1.7376 H         1 UNK         0.0815 
    108 H108       25.7173   29.5715    1.0939 H         1 UNK         0.0815 
    109 H109       27.4254   29.7282    0.6941 H         1 UNK         0.0815 
    110 H110       27.5444   30.6172    4.6643 H         1 UNK         0.2987 
    111 H111       30.3444   29.9570    5.0586 H         1 UNK         0.0949 
    112 H112       28.8297   30.3933    6.9755 H         1 UNK         0.0806 
    113 H113       30.1529   31.5444    6.9567 H         1 UNK         0.0806 
    114 H114       28.5570   32.0432    6.4119 H         1 UNK         0.0806 
    115 H115       30.4304   30.6717    2.5813 H         1 UNK         0.3010 
    116 H116       30.9240   33.5059    2.0841 H         1 UNK         0.0829 
    117 H117       31.4484   31.0389    0.3426 H         1 UNK         0.0813 
    118 H118       29.9638   31.9930    0.3429 H         1 UNK         0.0813 
    119 H119       31.4732   32.7103   -0.1975 H         1 UNK         0.0813 
    120 H120       32.4216   33.3461    4.0593 H         1 UNK         0.3038 
    121 H121       34.3611   33.7824    4.9884 H         1 UNK         0.0769 
    122 H122       35.5975   33.8675    2.1863 H         1 UNK         0.0811 
    123 H123       36.3243   34.4942    3.6566 H         1 UNK         0.0811 
    124 H124       34.8549   35.2247    3.0315 H         1 UNK         0.0811 
    125 H125       34.7253   31.2260    2.5711 H         1 UNK         0.3204 
    126 H126       37.0270   29.9443    3.4778 H         1 UNK         0.0748 
    127 H127       36.1446   27.9700    2.2054 H         1 UNK         0.0771 
    128 H128       34.5541   28.7178    2.1349 H         1 UNK         0.0771 
    129 H129       35.9218   29.4623    1.3073 H         1 UNK         0.0771 
    130 H130       33.7850   29.6808    4.8420 H         1 UNK         0.2980 
    131 H131       34.4364   27.4283    6.5685 H         1 UNK         0.0545 
    132 H132       35.5824   30.6955    8.5763 H         1 UNK         0.3459 
    133 H133       35.4320   30.7051    6.8365 H         1 UNK         0.3459 
    134 H134       32.1683   27.7536    7.5238 H         1 UNK         0.0616 
    135 H135       31.9820   29.2388    6.6322 H         1 UNK         0.0616 
    136 H136       33.0970   25.4835    6.0239 H         1 UNK         0.0634 
    137 H137       31.4799   25.4715    6.6886 H         1 UNK         0.0634 
@<TRIPOS>BOND
     1    1    2 1    
     2    1   72 1    
     3    1   73 1    
     4    1   74 1    
     5    2    3 2    
     6    2    4 am   BACKBONE|DICT|INTERRES
     7    4    5 1    
     8    4   75 1    
     9    5    6 1    
    10    5   35 1    
    11    5   76 1    
    12    6    7 1    
    13    6   77 1    
    14    6   78 1    
    15    7    8 1    
    16    8    9 1    
    17    8   79 1    
    18    8   80 1    
    19    9   10 ar   
    20    9   14 ar   
    21   10   11 ar   
    22   10   81 1    
    23   11   12 ar   
    24   11   71 1    
    25   12   13 ar   
    26   12   82 1    
    27   13   14 ar   
    28   13   15 1    
    29   14   83 1    
    30   15   16 1    
    31   15   84 1    
    32   15   85 1    
    33   16   17 1    
    34   17   18 1    
    35   17   86 1    
    36   17   87 1    
    37   18   19 1    
    38   18   37 1    
    39   18   88 1    
    40   19   20 am   BACKBONE|DICT|INTERRES
    41   19   89 1    
    42   20   21 2    
    43   20   22 1    
    44   22   23 1    
    45   22   24 1    
    46   22   90 1    
    47   23   91 1    
    48   23   92 1    
    49   23   93 1    
    50   24   25 am   BACKBONE|DICT|INTERRES
    51   24   94 1    
    52   25   26 2    
    53   25   27 1    
    54   27   28 1    
    55   27   29 1    
    56   27   95 1    
    57   28   96 1    
    58   28   97 1    
    59   28   98 1    
    60   29   30 am   BACKBONE|DICT|INTERRES
    61   29   99 1    
    62   30   31 2    
    63   30   32 1    
    64   32   33 1    
    65   32   34 1    
    66   32  100 1    
    67   33  101 1    
    68   33  102 1    
    69   33  103 1    
    70   34   35 am   BACKBONE|DICT|INTERRES
    71   34  104 1    
    72   35   36 2    
    73   37   38 2    
    74   37   39 am   BACKBONE|DICT|INTERRES
    75   39   40 1    
    76   39  105 1    
    77   40   41 1    
    78   40   42 1    
    79   40  106 1    
    80   41  107 1    
    81   41  108 1    
    82   41  109 1    
    83   42   43 2    
    84   42   44 am   BACKBONE|DICT|INTERRES
    85   44   45 1    
    86   44  110 1    
    87   45   46 1    
    88   45   47 1    
    89   45  111 1    
    90   46  112 1    
    91   46  113 1    
    92   46  114 1    
    93   47   48 2    
    94   47   49 am   BACKBONE|DICT|INTERRES
    95   49   50 1    
    96   49  115 1    
    97   50   51 1    
    98   50   52 1    
    99   50  116 1    
   100   51  117 1    
   101   51  118 1    
   102   51  119 1    
   103   52   53 2    
   104   52   54 am   BACKBONE|DICT|INTERRES
   105   54   55 1    
   106   54  120 1    
   107   55   56 1    
   108   55   57 1    
   109   55  121 1    
   110   56  122 1    
   111   56  123 1    
   112   56  124 1    
   113   57   58 2    
   114   57   59 am   BACKBONE|DICT|INTERRES
   115   59   60 1    
   116   59  125 1    
   117   60   61 1    
   118   60   62 1    
   119   60  126 1    
   120   61  127 1    
   121   61  128 1    
   122   61  129 1    
   123   62   63 2    
   124   62   64 am   BACKBONE|DICT|INTERRES
   125   64   65 1    
   126   64  130 1    
   127   65   66 1    
   128   65   69 1    
   129   65  131 1    
   130   66   67 am   BACKBONE|DICT|INTERRES
   131   66   68 2    
   132   67  132 1    
   133   67  133 1    
   134   69   70 1    
   135   69  134 1    
   136   69  135 1    
   137   70   71 1    
   138   71  136 1    
   139   71  137 1    
@<TRIPOS>SUBSTRUCTURE
     1 UNK         1 GROUP             0       ****    0 ROOT    
