@<TRIPOS>MOLECULE
3R136
137   139    1
SMALL
USER_CHARGES


@<TRIPOS>ATOM
      1 CA         29.4799   19.1584    2.2853 C.3       0 UNK        -0.1979 
      2 C          28.9911   19.9028    1.0515 C.2       0 UNK         0.4864 
      3 O          28.1864   19.3634    0.2911 O.2       0 UNK        -0.5359 
      4 N          29.4760   21.1357    0.8485 N.am      1 UNK        -0.4318 
      5 CA         29.1242   22.0084   -0.2786 C.3       1 UNK         0.0824 
      6 C6         30.0321   23.2597   -0.3555 C.3       12 UNK        -0.0944 
      7 S7         31.8084   22.8923   -0.5635 S.3       12 UNK        -0.2672 
      8 C8         32.4660   22.8984    1.1407 C.3       12 UNK         0.0333 
      9 C9         32.1109   24.1569    1.9221 C.ar      12 UNK        -0.0807 
     10 C10        32.7359   25.3730    1.6307 C.ar      12 UNK        -0.0894 
     11 C11        32.4247   26.5249    2.3633 C.ar      12 UNK        -0.0804 
     12 C12        31.4668   26.4541    3.3776 C.ar      12 UNK        -0.0824 
     13 C13        30.8132   25.2525    3.6587 C.ar      12 UNK        -0.0762 
     14 C14        31.1556   24.1030    2.9421 C.ar      12 UNK        -0.0782 
     15 C15        29.7289   25.1855    4.7238 C.3       12 UNK         0.0230 
     16 S16        28.0789   25.0752    3.9574 S.3       12 UNK        -0.2608 
     17 C17        27.4046   26.7566    4.1972 C.3       12 UNK        -0.0989 
     18 CA         28.0904   27.8500    3.3420 C.3       5 UNK         0.0716 
     19 N          28.1468   27.5132    1.9196 N.am      5 UNK        -0.4135 
     20 C          28.8519   28.1934    1.0042 C.2       4 UNK         0.5031 
     21 O          29.5155   29.1979    1.2620 O.2       4 UNK        -0.5229 
     22 CA         28.8378   27.6717   -0.4423 C.3       4 UNK         0.0329 
     23 CB         30.1519   26.9359   -0.7485 C.3       4 UNK        -0.2001 
     24 N          27.7024   26.7903   -0.7307 N.am      4 UNK        -0.4303 
     25 C          26.4533   27.2225   -0.9579 C.2       3 UNK         0.5044 
     26 O          26.1319   28.4103   -0.9740 O.2       3 UNK        -0.5152 
     27 CA         25.3781   26.1525   -1.2145 C.3       3 UNK         0.0319 
     28 CB         25.2384   25.8810   -2.7208 C.3       3 UNK        -0.2001 
     29 N          25.6289   24.8873   -0.5197 N.am      3 UNK        -0.4354 
     30 C          25.5600   24.7051    0.8047 C.2       2 UNK         0.4964 
     31 O          25.3090   25.6074    1.6020 O.2       2 UNK        -0.5047 
     32 CA         25.8275   23.2837    1.3322 C.3       2 UNK         0.0288 
     33 CB         24.7007   22.3091    0.9346 C.3       2 UNK        -0.2113 
     34 N          27.1529   22.7550    0.9796 N.am      2 UNK        -0.4145 
     35 C          27.6513   22.4634   -0.2336 C.2       1 UNK         0.5006 
     36 O          27.0216   22.5741   -1.2873 O.2       1 UNK        -0.5103 
     37 C          27.4168   29.2188    3.5438 C.2       5 UNK         0.5055 
     38 O          26.3176   29.4373    3.0301 O.2       5 UNK        -0.5220 
     39 N          28.1120   30.1217    4.2469 N.am      6 UNK        -0.4450 
     40 CA         27.7978   31.5346    4.4942 C.3       6 UNK         0.0367 
     41 CB         26.4043   31.7373    5.1207 C.3       6 UNK        -0.1929 
     42 C          28.0031   32.4231    3.2558 C.2       6 UNK         0.5070 
     43 O          28.5852   33.4991    3.3904 O.2       6 UNK        -0.5237 
     44 N          27.5844   31.9508    2.0733 N.am      7 UNK        -0.4739 
     45 CA         27.7596   32.6100    0.7735 C.3       7 UNK         0.0276 
     46 CB         27.0818   31.7689   -0.3192 C.3       7 UNK        -0.1927 
     47 C          29.2324   32.8781    0.4139 C.2       7 UNK         0.5013 
     48 O          29.5417   33.9509   -0.1058 O.2       7 UNK        -0.5193 
     49 N          30.1088   31.9206    0.7380 N.am      8 UNK        -0.4253 
     50 CA         31.5645   32.0330    0.6641 C.3       8 UNK         0.0242 
     51 CB         32.0928   31.0375   -0.3854 C.3       8 UNK        -0.2000 
     52 C          32.1779   31.8194    2.0610 C.2       8 UNK         0.4948 
     53 O          33.2636   31.2483    2.1732 O.2       8 UNK        -0.5275 
     54 N          31.4727   32.2928    3.1012 N.am      9 UNK        -0.4246 
     55 CA         31.7865   32.1525    4.5270 C.3       9 UNK         0.0261 
     56 CB         33.0884   32.9069    4.8858 C.3       9 UNK        -0.1959 
     57 C          31.7558   30.6783    4.9825 C.2       9 UNK         0.5033 
     58 O          30.9102   29.9155    4.5090 O.2       9 UNK        -0.5390 
     59 N          32.6318   30.3120    5.9251 N.am      10 UNK        -0.4215 
     60 CA         32.7319   28.9631    6.4900 C.3       10 UNK         0.0240 
     61 CB         32.9716   29.0828    8.0055 C.3       10 UNK        -0.1982 
     62 C          33.8388   28.1132    5.8399 C.2       10 UNK         0.4970 
     63 O          33.8989   26.9173    6.1254 O.2       10 UNK        -0.4916 
     64 N          34.7041   28.7305    5.0185 N.am      11 UNK        -0.4279 
     65 CA         35.8882   28.1140    4.3866 C.3       11 UNK         0.1003 
     66 C          36.9799   27.6249    5.3928 C.2       11 UNK         0.5709 
     67 N          37.0002   28.1062    6.6307 N.am      11 UNK        -0.7358 
     68 O          37.8502   26.8305    5.0436 O.2       11 UNK        -0.4999 
     69 C69        35.5103   27.0446    3.3174 C.3       12 UNK        -0.0954 
     70 S70        34.8784   27.7837    1.7739 S.3       12 UNK        -0.2268 
     71 C71        33.0793   27.8664    2.0561 C.3       12 UNK         0.0203 
     72 H72        28.6377   18.9066    2.9292 H         1 UNK         0.0888 
     73 H73        29.9740   18.2323    1.9928 H         1 UNK         0.0888 
     74 H74        30.1865   19.7497    2.8674 H         1 UNK         0.0888 
     75 H75        30.1601   21.5057    1.4893 H         1 UNK         0.3017 
     76 H76        29.2572   21.4311   -1.1964 H         1 UNK         0.0873 
     77 H77        29.7472   23.8672   -1.2171 H         1 UNK         0.0745 
     78 H78        29.8793   23.8988    0.5135 H         1 UNK         0.0745 
     79 H79        33.5520   22.8064    1.0918 H         1 UNK         0.0705 
     80 H80        32.1178   22.0074    1.6637 H         1 UNK         0.0705 
     81 H81        33.4655   25.4205    0.8341 H         1 UNK         0.1334 
     82 H82        31.2256   27.3437    3.9408 H         1 UNK         0.1417 
     83 H83        30.6592   23.1709    3.1727 H         1 UNK         0.1562 
     84 H84        29.7832   26.0445    5.3943 H         1 UNK         0.0748 
     85 H85        29.8885   24.3038    5.3460 H         1 UNK         0.0748 
     86 H86        27.4679   27.0064    5.2581 H         1 UNK         0.0940 
     87 H87        26.3383   26.7128    3.9646 H         1 UNK         0.0940 
     88 H88        29.1195   27.9390    3.6852 H         1 UNK         0.0703 
     89 H89        27.5786   26.7320    1.6281 H         1 UNK         0.3081 
     90 H90        28.7771   28.5392   -1.1032 H         1 UNK         0.0719 
     91 H91        31.0005   27.6171   -0.6768 H         1 UNK         0.0809 
     92 H92        30.1578   26.5195   -1.7558 H         1 UNK         0.0809 
     93 H93        30.3357   26.1270   -0.0423 H         1 UNK         0.0809 
     94 H94        27.8788   25.7976   -0.7553 H         1 UNK         0.2990 
     95 H95        24.4285   26.5509   -0.8507 H         1 UNK         0.0690 
     96 H96        24.4174   25.1934   -2.9251 H         1 UNK         0.0788 
     97 H97        26.1489   25.4505   -3.1400 H         1 UNK         0.0788 
     98 H98        25.0310   26.8026   -3.2666 H         1 UNK         0.0788 
     99 H99        25.8966   24.0855   -1.0855 H         1 UNK         0.2993 
    100 H100       25.8207   23.3550    2.4215 H         1 UNK         0.0949 
    101 H101       23.7318   22.6763    1.2756 H         1 UNK         0.0767 
    102 H102       24.6326   22.1723   -0.1449 H         1 UNK         0.0767 
    103 H103       24.8521   21.3280    1.3852 H         1 UNK         0.0767 
    104 H104       27.7776   22.6404    1.7653 H         1 UNK         0.3013 
    105 H105       29.0694   29.8696    4.4952 H         1 UNK         0.3121 
    106 H106       28.5300   31.8610    5.2343 H         1 UNK         0.0774 
    107 H107       26.2696   32.7745    5.4301 H         1 UNK         0.0815 
    108 H108       25.5996   31.5062    4.4226 H         1 UNK         0.0815 
    109 H109       26.2721   31.1150    6.0056 H         1 UNK         0.0815 
    110 H110       27.1111   31.0529    2.0765 H         1 UNK         0.2987 
    111 H111       27.2546   33.5768    0.8271 H         1 UNK         0.0949 
    112 H112       26.0187   31.6353   -0.1182 H         1 UNK         0.0806 
    113 H113       27.1693   32.2499   -1.2943 H         1 UNK         0.0806 
    114 H114       27.5316   30.7789   -0.4025 H         1 UNK         0.0806 
    115 H115       29.7619   31.0411    1.1205 H         1 UNK         0.3010 
    116 H116       31.8558   33.0386    0.3543 H         1 UNK         0.0829 
    117 H117       31.6897   31.2580   -1.3737 H         1 UNK         0.0813 
    118 H118       33.1800   31.0796   -0.4625 H         1 UNK         0.0813 
    119 H119       31.8181   30.0131   -0.1368 H         1 UNK         0.0813 
    120 H120       30.5848   32.7381    2.9009 H         1 UNK         0.3038 
    121 H121       30.9704   32.6438    5.0582 H         1 UNK         0.0769 
    122 H122       33.9737   32.4210    4.4739 H         1 UNK         0.0811 
    123 H123       33.2213   32.9866    5.9653 H         1 UNK         0.0811 
    124 H124       33.0663   33.9261    4.4995 H         1 UNK         0.0811 
    125 H125       33.2687   31.0078    6.2866 H         1 UNK         0.3204 
    126 H126       31.7916   28.4270    6.3432 H         1 UNK         0.0748 
    127 H127       33.0198   28.0987    8.4744 H         1 UNK         0.0771 
    128 H128       33.9068   29.5969    8.2303 H         1 UNK         0.0771 
    129 H129       32.1631   29.6294    8.4914 H         1 UNK         0.0771 
    130 H130       34.5691   29.7102    4.8209 H         1 UNK         0.2980 
    131 H131       36.3859   28.9296    3.8609 H         1 UNK         0.0545 
    132 H132       36.3102   28.7730    6.9343 H         1 UNK         0.3459 
    133 H133       37.7170   27.7947    7.2670 H         1 UNK         0.3459 
    134 H134       34.8028   26.3150    3.7115 H         1 UNK         0.0616 
    135 H135       36.3843   26.4651    3.0172 H         1 UNK         0.0616 
    136 H136       32.6091   28.2784    1.1646 H         1 UNK         0.0634 
    137 H137       32.8878   28.5818    2.8562 H         1 UNK         0.0634 
@<TRIPOS>BOND
     1    1    2 1    
     2    1   72 1    
     3    1   73 1    
     4    1   74 1    
     5    2    3 2    
     6    2    4 am   BACKBONE|DICT|INTERRES
     7    4    5 1    
     8    4   75 1    
     9    5    6 1    
    10    5   35 1    
    11    5   76 1    
    12    6    7 1    
    13    6   77 1    
    14    6   78 1    
    15    7    8 1    
    16    8    9 1    
    17    8   79 1    
    18    8   80 1    
    19    9   10 ar   
    20    9   14 ar   
    21   10   11 ar   
    22   10   81 1    
    23   11   12 ar   
    24   11   71 1    
    25   12   13 ar   
    26   12   82 1    
    27   13   14 ar   
    28   13   15 1    
    29   14   83 1    
    30   15   16 1    
    31   15   84 1    
    32   15   85 1    
    33   16   17 1    
    34   17   18 1    
    35   17   86 1    
    36   17   87 1    
    37   18   19 1    
    38   18   37 1    
    39   18   88 1    
    40   19   20 am   BACKBONE|DICT|INTERRES
    41   19   89 1    
    42   20   21 2    
    43   20   22 1    
    44   22   23 1    
    45   22   24 1    
    46   22   90 1    
    47   23   91 1    
    48   23   92 1    
    49   23   93 1    
    50   24   25 am   BACKBONE|DICT|INTERRES
    51   24   94 1    
    52   25   26 2    
    53   25   27 1    
    54   27   28 1    
    55   27   29 1    
    56   27   95 1    
    57   28   96 1    
    58   28   97 1    
    59   28   98 1    
    60   29   30 am   BACKBONE|DICT|INTERRES
    61   29   99 1    
    62   30   31 2    
    63   30   32 1    
    64   32   33 1    
    65   32   34 1    
    66   32  100 1    
    67   33  101 1    
    68   33  102 1    
    69   33  103 1    
    70   34   35 am   BACKBONE|DICT|INTERRES
    71   34  104 1    
    72   35   36 2    
    73   37   38 2    
    74   37   39 am   BACKBONE|DICT|INTERRES
    75   39   40 1    
    76   39  105 1    
    77   40   41 1    
    78   40   42 1    
    79   40  106 1    
    80   41  107 1    
    81   41  108 1    
    82   41  109 1    
    83   42   43 2    
    84   42   44 am   BACKBONE|DICT|INTERRES
    85   44   45 1    
    86   44  110 1    
    87   45   46 1    
    88   45   47 1    
    89   45  111 1    
    90   46  112 1    
    91   46  113 1    
    92   46  114 1    
    93   47   48 2    
    94   47   49 am   BACKBONE|DICT|INTERRES
    95   49   50 1    
    96   49  115 1    
    97   50   51 1    
    98   50   52 1    
    99   50  116 1    
   100   51  117 1    
   101   51  118 1    
   102   51  119 1    
   103   52   53 2    
   104   52   54 am   BACKBONE|DICT|INTERRES
   105   54   55 1    
   106   54  120 1    
   107   55   56 1    
   108   55   57 1    
   109   55  121 1    
   110   56  122 1    
   111   56  123 1    
   112   56  124 1    
   113   57   58 2    
   114   57   59 am   BACKBONE|DICT|INTERRES
   115   59   60 1    
   116   59  125 1    
   117   60   61 1    
   118   60   62 1    
   119   60  126 1    
   120   61  127 1    
   121   61  128 1    
   122   61  129 1    
   123   62   63 2    
   124   62   64 am   BACKBONE|DICT|INTERRES
   125   64   65 1    
   126   64  130 1    
   127   65   66 1    
   128   65   69 1    
   129   65  131 1    
   130   66   67 am   BACKBONE|DICT|INTERRES
   131   66   68 2    
   132   67  132 1    
   133   67  133 1    
   134   69   70 1    
   135   69  134 1    
   136   69  135 1    
   137   70   71 1    
   138   71  136 1    
   139   71  137 1    
@<TRIPOS>SUBSTRUCTURE
     1 UNK         1 GROUP             0       ****    0 ROOT    
