@<TRIPOS>MOLECULE
3R136
137   139    1
SMALL
USER_CHARGES


@<TRIPOS>ATOM
      1 CA         32.3148   26.5486   -0.4973 C.3       0 UNK        -0.1979 
      2 C          31.1408   25.5992   -0.3259 C.2       0 UNK         0.4864 
      3 O          30.2735   25.8389    0.5139 O.2       0 UNK        -0.5359 
      4 N          31.0865   24.5304   -1.1320 N.am      1 UNK        -0.4318 
      5 CA         30.0922   23.4481   -1.0591 C.3       1 UNK         0.0824 
      6 C6         30.6085   22.1292   -1.6935 C.3       12 UNK        -0.0944 
      7 S7         32.2576   21.6175   -1.1070 S.3       12 UNK        -0.2672 
      8 C8         31.8600   20.8232    0.4866 C.3       12 UNK         0.0333 
      9 C9         31.6604   21.8154    1.6303 C.ar      12 UNK        -0.0807 
     10 C10        32.5869   22.8420    1.8531 C.ar      12 UNK        -0.0894 
     11 C11        32.4527   23.7083    2.9423 C.ar      12 UNK        -0.0804 
     12 C12        31.3923   23.5110    3.8310 C.ar      12 UNK        -0.0824 
     13 C13        30.4402   22.5133    3.6132 C.ar      12 UNK        -0.0762 
     14 C14        30.5772   21.6697    2.5057 C.ar      12 UNK        -0.0782 
     15 C15        29.3052   22.3134    4.6125 C.3       12 UNK         0.0230 
     16 S16        27.8233   23.3064    4.2271 S.3       12 UNK        -0.2608 
     17 C17        28.3358   25.0040    4.6729 C.3       12 UNK        -0.0989 
     18 CA         28.2696   25.9432    3.4392 C.3       5 UNK         0.0716 
     19 N          26.8912   26.2712    3.0396 N.am      5 UNK        -0.4135 
     20 C          26.0235   27.0522    3.7092 C.2       4 UNK         0.5031 
     21 O          26.2390   27.5115    4.8313 O.2       4 UNK        -0.5229 
     22 CA         24.6976   27.4346    3.0207 C.3       4 UNK         0.0329 
     23 CB         24.7391   28.9097    2.5845 C.3       4 UNK        -0.2001 
     24 N          24.3760   26.6148    1.8540 N.am      4 UNK        -0.4303 
     25 C          23.8406   25.3875    1.8969 C.2       3 UNK         0.5044 
     26 O          23.4738   24.8339    2.9337 O.2       3 UNK        -0.5152 
     27 CA         23.7150   24.6410    0.5518 C.3       3 UNK         0.0319 
     28 CB         22.2948   24.7937   -0.0164 C.3       3 UNK        -0.2001 
     29 N          24.6921   25.0569   -0.4668 N.am      3 UNK        -0.4354 
     30 C          26.0220   24.9938   -0.3136 C.2       2 UNK         0.4964 
     31 O          26.5661   24.5972    0.7193 O.2       2 UNK        -0.5047 
     32 CA         26.8828   25.5344   -1.4660 C.3       2 UNK         0.0288 
     33 CB         26.8822   27.0729   -1.4606 C.3       2 UNK        -0.2113 
     34 N          28.2591   25.0721   -1.3080 N.am      2 UNK        -0.4145 
     35 C          28.6980   23.8447   -1.6052 C.2       1 UNK         0.5006 
     36 O          28.0384   23.0385   -2.2661 O.2       1 UNK        -0.5103 
     37 C          29.1010   27.2372    3.5879 C.2       5 UNK         0.5055 
     38 O          29.5296   27.5967    4.6895 O.2       5 UNK        -0.5220 
     39 N          29.2567   27.9474    2.4653 N.am      6 UNK        -0.4450 
     40 CA         29.9000   29.2491    2.3753 C.3       6 UNK         0.0367 
     41 CB         28.8910   30.3503    2.7556 C.3       6 UNK        -0.1929 
     42 C          30.4102   29.4671    0.9494 C.2       6 UNK         0.5070 
     43 O          29.7835   29.0002   -0.0046 O.2       6 UNK        -0.5237 
     44 N          31.5091   30.2172    0.8427 N.am      7 UNK        -0.4739 
     45 CA         32.0686   30.7417   -0.4003 C.3       7 UNK         0.0276 
     46 CB         33.5381   30.2836   -0.5198 C.3       7 UNK        -0.1927 
     47 C          31.8838   32.2685   -0.3610 C.2       7 UNK         0.5013 
     48 O          30.7454   32.7318   -0.2698 O.2       7 UNK        -0.5193 
     49 N          32.9887   33.0289   -0.3730 N.am      8 UNK        -0.4253 
     50 CA         33.0067   34.4720   -0.0976 C.3       8 UNK         0.0242 
     51 CB         34.3605   35.0535   -0.5368 C.3       8 UNK        -0.2000 
     52 C          32.7323   34.8010    1.3853 C.2       8 UNK         0.4948 
     53 O          32.3219   35.9207    1.6932 O.2       8 UNK        -0.5275 
     54 N          32.9526   33.8188    2.2651 N.am      9 UNK        -0.4246 
     55 CA         32.6148   33.8104    3.6822 C.3       9 UNK         0.0261 
     56 CB         33.8455   34.2305    4.5051 C.3       9 UNK        -0.1959 
     57 C          32.1606   32.3870    4.0366 C.2       9 UNK         0.5033 
     58 O          32.3695   31.4644    3.2403 O.2       9 UNK        -0.5390 
     59 N          31.5460   32.2314    5.2153 N.am      10 UNK        -0.4215 
     60 CA         31.0905   30.9465    5.7535 C.3       10 UNK         0.0240 
     61 CB         30.2536   31.1956    7.0185 C.3       10 UNK        -0.1982 
     62 C          32.2578   29.9936    6.0578 C.2       10 UNK         0.4970 
     63 O          33.3109   30.4485    6.5114 O.2       10 UNK        -0.4916 
     64 N          32.0332   28.6922    5.8424 N.am      11 UNK        -0.4279 
     65 CA         32.9974   27.6241    6.1547 C.3       11 UNK         0.1003 
     66 C          33.2049   27.3686    7.6776 C.2       11 UNK         0.5709 
     67 N          32.3343   27.8441    8.5610 N.am      11 UNK        -0.7358 
     68 O          34.1809   26.7297    8.0637 O.2       11 UNK        -0.4999 
     69 C69        32.6240   26.3078    5.4300 C.3       12 UNK        -0.0954 
     70 S70        32.7584   26.4323    3.6111 S.3       12 UNK        -0.2268 
     71 C71        33.4851   24.8144    3.1647 C.3       12 UNK         0.0203 
     72 H72        32.7006   26.8474    0.4770 H         1 UNK         0.0888 
     73 H73        33.1286   26.0916   -1.0597 H         1 UNK         0.0888 
     74 H74        31.9889   27.4440   -1.0252 H         1 UNK         0.0888 
     75 H75        31.8138   24.3940   -1.8192 H         1 UNK         0.3017 
     76 H76        29.9242   23.2456    0.0004 H         1 UNK         0.0873 
     77 H77        30.6673   22.2333   -2.7786 H         1 UNK         0.0745 
     78 H78        29.9087   21.3122   -1.5075 H         1 UNK         0.0745 
     79 H79        32.6848   20.1615    0.7538 H         1 UNK         0.0705 
     80 H80        30.9850   20.1835    0.3626 H         1 UNK         0.0705 
     81 H81        33.4250   22.9576    1.1797 H         1 UNK         0.1334 
     82 H82        31.3088   24.1288    4.7068 H         1 UNK         0.1417 
     83 H83        29.8570   20.8784    2.3467 H         1 UNK         0.1562 
     84 H84        29.6445   22.5453    5.6234 H         1 UNK         0.0748 
     85 H85        29.0179   21.2610    4.6311 H         1 UNK         0.0748 
     86 H86        29.3380   24.9810    5.0956 H         1 UNK         0.0940 
     87 H87        27.6960   25.3684    5.4776 H         1 UNK         0.0940 
     88 H88        28.7132   25.4066    2.5989 H         1 UNK         0.0703 
     89 H89        26.6045   25.8611    2.1560 H         1 UNK         0.3081 
     90 H90        23.9011   27.3198    3.7592 H         1 UNK         0.0719 
     91 H91        25.5221   29.0918    1.8470 H         1 UNK         0.0809 
     92 H92        23.7888   29.2239    2.1526 H         1 UNK         0.0809 
     93 H93        24.9370   29.5637    3.4352 H         1 UNK         0.0809 
     94 H94        24.6259   26.9906    0.9513 H         1 UNK         0.2990 
     95 H95        23.8890   23.5825    0.7562 H         1 UNK         0.0690 
     96 H96        22.1578   24.1890   -0.9131 H         1 UNK         0.0788 
     97 H97        22.0707   25.8304   -0.2710 H         1 UNK         0.0788 
     98 H98        21.5472   24.4674    0.7083 H         1 UNK         0.0788 
     99 H99        24.3163   25.4094   -1.3361 H         1 UNK         0.2993 
    100 H100       26.4819   25.1706   -2.4146 H         1 UNK         0.0949 
    101 H101       27.5114   27.4699   -2.2577 H         1 UNK         0.0767 
    102 H102       25.8786   27.4708   -1.6154 H         1 UNK         0.0767 
    103 H103       27.2540   27.4754   -0.5167 H         1 UNK         0.0767 
    104 H104       28.8540   25.6161   -0.6877 H         1 UNK         0.3013 
    105 H105       29.0019   27.5421    1.5714 H         1 UNK         0.3121 
    106 H106       30.7552   29.2653    3.0533 H         1 UNK         0.0774 
    107 H107       29.3648   31.3327    2.7457 H         1 UNK         0.0815 
    108 H108       28.0554   30.3844    2.0553 H         1 UNK         0.0815 
    109 H109       28.4779   30.1949    3.7522 H         1 UNK         0.0815 
    110 H110       31.8981   30.6064    1.7019 H         1 UNK         0.2987 
    111 H111       31.5146   30.3703   -1.2652 H         1 UNK         0.0949 
    112 H112       33.9965   30.6529   -1.4382 H         1 UNK         0.0806 
    113 H113       34.1452   30.6178    0.3228 H         1 UNK         0.0806 
    114 H114       33.6066   29.1970   -0.5512 H         1 UNK         0.0806 
    115 H115       33.8850   32.5739   -0.4722 H         1 UNK         0.3010 
    116 H116       32.2204   34.9456   -0.6896 H         1 UNK         0.0829 
    117 H117       34.5399   34.8849   -1.5988 H         1 UNK         0.0813 
    118 H118       34.3929   36.1315   -0.3720 H         1 UNK         0.0813 
    119 H119       35.1898   34.6145    0.0195 H         1 UNK         0.0813 
    120 H120       33.2266   32.9092    1.9172 H         1 UNK         0.3038 
    121 H121       31.7859   34.4962    3.8705 H         1 UNK         0.0769 
    122 H122       33.6204   34.2509    5.5719 H         1 UNK         0.0811 
    123 H123       34.1841   35.2289    4.2275 H         1 UNK         0.0811 
    124 H124       34.6795   33.5424    4.3603 H         1 UNK         0.0811 
    125 H125       31.4448   33.0337    5.8199 H         1 UNK         0.3204 
    126 H126       30.4483   30.4775    5.0108 H         1 UNK         0.0748 
    127 H127       29.8594   30.2594    7.4164 H         1 UNK         0.0771 
    128 H128       30.8432   31.6640    7.8079 H         1 UNK         0.0771 
    129 H129       29.3988   31.8391    6.8090 H         1 UNK         0.0771 
    130 H130       31.1380   28.3829    5.4714 H         1 UNK         0.2980 
    131 H131       33.9701   27.9436    5.7755 H         1 UNK         0.0545 
    132 H132       32.4850   27.6737    9.5427 H         1 UNK         0.3459 
    133 H133       31.5274   28.3627    8.2556 H         1 UNK         0.3459 
    134 H134       33.2604   25.4887    5.7693 H         1 UNK         0.0616 
    135 H135       31.6023   26.0324    5.6926 H         1 UNK         0.0616 
    136 H136       34.2012   24.4973    3.9232 H         1 UNK         0.0634 
    137 H137       34.0617   24.9651    2.2509 H         1 UNK         0.0634 
@<TRIPOS>BOND
     1    1    2 1    
     2    1   72 1    
     3    1   73 1    
     4    1   74 1    
     5    2    3 2    
     6    2    4 am   BACKBONE|DICT|INTERRES
     7    4    5 1    
     8    4   75 1    
     9    5    6 1    
    10    5   35 1    
    11    5   76 1    
    12    6    7 1    
    13    6   77 1    
    14    6   78 1    
    15    7    8 1    
    16    8    9 1    
    17    8   79 1    
    18    8   80 1    
    19    9   10 ar   
    20    9   14 ar   
    21   10   11 ar   
    22   10   81 1    
    23   11   12 ar   
    24   11   71 1    
    25   12   13 ar   
    26   12   82 1    
    27   13   14 ar   
    28   13   15 1    
    29   14   83 1    
    30   15   16 1    
    31   15   84 1    
    32   15   85 1    
    33   16   17 1    
    34   17   18 1    
    35   17   86 1    
    36   17   87 1    
    37   18   19 1    
    38   18   37 1    
    39   18   88 1    
    40   19   20 am   BACKBONE|DICT|INTERRES
    41   19   89 1    
    42   20   21 2    
    43   20   22 1    
    44   22   23 1    
    45   22   24 1    
    46   22   90 1    
    47   23   91 1    
    48   23   92 1    
    49   23   93 1    
    50   24   25 am   BACKBONE|DICT|INTERRES
    51   24   94 1    
    52   25   26 2    
    53   25   27 1    
    54   27   28 1    
    55   27   29 1    
    56   27   95 1    
    57   28   96 1    
    58   28   97 1    
    59   28   98 1    
    60   29   30 am   BACKBONE|DICT|INTERRES
    61   29   99 1    
    62   30   31 2    
    63   30   32 1    
    64   32   33 1    
    65   32   34 1    
    66   32  100 1    
    67   33  101 1    
    68   33  102 1    
    69   33  103 1    
    70   34   35 am   BACKBONE|DICT|INTERRES
    71   34  104 1    
    72   35   36 2    
    73   37   38 2    
    74   37   39 am   BACKBONE|DICT|INTERRES
    75   39   40 1    
    76   39  105 1    
    77   40   41 1    
    78   40   42 1    
    79   40  106 1    
    80   41  107 1    
    81   41  108 1    
    82   41  109 1    
    83   42   43 2    
    84   42   44 am   BACKBONE|DICT|INTERRES
    85   44   45 1    
    86   44  110 1    
    87   45   46 1    
    88   45   47 1    
    89   45  111 1    
    90   46  112 1    
    91   46  113 1    
    92   46  114 1    
    93   47   48 2    
    94   47   49 am   BACKBONE|DICT|INTERRES
    95   49   50 1    
    96   49  115 1    
    97   50   51 1    
    98   50   52 1    
    99   50  116 1    
   100   51  117 1    
   101   51  118 1    
   102   51  119 1    
   103   52   53 2    
   104   52   54 am   BACKBONE|DICT|INTERRES
   105   54   55 1    
   106   54  120 1    
   107   55   56 1    
   108   55   57 1    
   109   55  121 1    
   110   56  122 1    
   111   56  123 1    
   112   56  124 1    
   113   57   58 2    
   114   57   59 am   BACKBONE|DICT|INTERRES
   115   59   60 1    
   116   59  125 1    
   117   60   61 1    
   118   60   62 1    
   119   60  126 1    
   120   61  127 1    
   121   61  128 1    
   122   61  129 1    
   123   62   63 2    
   124   62   64 am   BACKBONE|DICT|INTERRES
   125   64   65 1    
   126   64  130 1    
   127   65   66 1    
   128   65   69 1    
   129   65  131 1    
   130   66   67 am   BACKBONE|DICT|INTERRES
   131   66   68 2    
   132   67  132 1    
   133   67  133 1    
   134   69   70 1    
   135   69  134 1    
   136   69  135 1    
   137   70   71 1    
   138   71  136 1    
   139   71  137 1    
@<TRIPOS>SUBSTRUCTURE
     1 UNK         1 GROUP             0       ****    0 ROOT    
