@<TRIPOS>MOLECULE
3R136
137   139    1
SMALL
USER_CHARGES


@<TRIPOS>ATOM
      1 CA         32.3175   28.8094   -4.4814 C.3       0 UNK        -0.1979 
      2 C          31.7403   28.3402   -3.1545 C.2       0 UNK         0.4864 
      3 O          32.1551   28.8356   -2.1046 O.2       0 UNK        -0.5359 
      4 N          30.7898   27.3983   -3.1987 N.am      1 UNK        -0.4318 
      5 CA         30.0925   26.8444   -2.0407 C.3       1 UNK         0.0824 
      6 C6         30.8459   25.6357   -1.4299 C.3       12 UNK        -0.0944 
      7 S7         30.2615   25.2690    0.2536 S.3       12 UNK        -0.2672 
      8 C8         31.3335   23.8854    0.7271 C.3       12 UNK         0.0333 
      9 C9         31.4245   23.8234    2.2404 C.ar      12 UNK        -0.0807 
     10 C10        32.4306   24.5313    2.9000 C.ar      12 UNK        -0.0894 
     11 C11        32.4828   24.5596    4.2954 C.ar      12 UNK        -0.0804 
     12 C12        31.5235   23.8574    5.0323 C.ar      12 UNK        -0.0824 
     13 C13        30.5181   23.1308    4.3825 C.ar      12 UNK        -0.0762 
     14 C14        30.4798   23.1105    2.9840 C.ar      12 UNK        -0.0782 
     15 C15        29.4766   22.3700    5.1971 C.3       12 UNK         0.0230 
     16 S16        27.7590   22.8568    4.8130 S.3       12 UNK        -0.2608 
     17 C17        27.7871   24.6580    5.1109 C.3       12 UNK        -0.0989 
     18 CA         27.4899   25.4575    3.8096 C.3       5 UNK         0.0716 
     19 N          26.1610   25.2102    3.2282 N.am      5 UNK        -0.4135 
     20 C          24.9723   25.4169    3.8188 C.2       4 UNK         0.5031 
     21 O          24.8477   25.8040    4.9813 O.2       4 UNK        -0.5229 
     22 CA         23.6929   25.2052    2.9791 C.3       4 UNK         0.0329 
     23 CB         22.9093   26.5238    2.8518 C.3       4 UNK        -0.2001 
     24 N          23.9383   24.6834    1.6332 N.am      4 UNK        -0.4303 
     25 C          24.2674   23.4196    1.3343 C.2       3 UNK         0.5044 
     26 O          24.3056   22.5102    2.1630 O.2       3 UNK        -0.5152 
     27 CA         24.6450   23.1213   -0.1319 C.3       3 UNK         0.0319 
     28 CB         23.4885   22.4022   -0.8456 C.3       3 UNK        -0.2001 
     29 N          25.0464   24.2912   -0.9300 N.am      3 UNK        -0.4354 
     30 C          26.0687   25.1132   -0.6525 C.2       2 UNK         0.4964 
     31 O          26.7505   25.0300    0.3720 O.2       2 UNK        -0.5047 
     32 CA         26.3149   26.2550   -1.6489 C.3       2 UNK         0.0288 
     33 CB         25.4005   27.4471   -1.3199 C.3       2 UNK        -0.2113 
     34 N          27.7048   26.6916   -1.5484 N.am      2 UNK        -0.4145 
     35 C          28.6592   26.4788   -2.4601 C.2       1 UNK         0.5006 
     36 O          28.4584   25.9980   -3.5797 O.2       1 UNK        -0.5103 
     37 C          27.7966   26.9672    3.9315 C.2       5 UNK         0.5055 
     38 O          28.6226   27.3672    4.7535 O.2       5 UNK        -0.5220 
     39 N          27.1569   27.7772    3.0769 N.am      6 UNK        -0.4450 
     40 CA         27.5612   29.1467    2.7751 C.3       6 UNK         0.0367 
     41 CB         26.3275   29.9661    2.3640 C.3       6 UNK        -0.1929 
     42 C          28.5758   29.0679    1.6290 C.2       6 UNK         0.5070 
     43 O          28.3493   28.3085    0.6836 O.2       6 UNK        -0.5237 
     44 N          29.6715   29.8225    1.7290 N.am      7 UNK        -0.4739 
     45 CA         30.8039   29.7260    0.8133 C.3       7 UNK         0.0276 
     46 CB         31.7704   28.6380    1.3275 C.3       7 UNK        -0.1927 
     47 C          31.5168   31.0718    0.6791 C.2       7 UNK         0.5013 
     48 O          31.2181   32.0117    1.4205 O.2       7 UNK        -0.5193 
     49 N          32.4725   31.1199   -0.2582 N.am      8 UNK        -0.4253 
     50 CA         33.4367   32.2143   -0.4053 C.3       8 UNK         0.0242 
     51 CB         34.1723   32.0629   -1.7467 C.3       8 UNK        -0.2000 
     52 C          34.4411   32.2793    0.7635 C.2       8 UNK         0.4948 
     53 O          34.9185   33.3665    1.0916 O.2       8 UNK        -0.5275 
     54 N          34.7316   31.1211    1.3722 N.am      9 UNK        -0.4246 
     55 CA         35.4877   30.9877    2.6174 C.3       9 UNK         0.0261 
     56 CB         36.0818   29.5707    2.6819 C.3       9 UNK        -0.1959 
     57 C          34.5773   31.2423    3.8307 C.2       9 UNK         0.5033 
     58 O          33.3584   31.0829    3.7302 O.2       9 UNK        -0.5390 
     59 N          35.1814   31.5859    4.9757 N.am      10 UNK        -0.4215 
     60 CA         34.5028   31.8783    6.2464 C.3       10 UNK         0.0240 
     61 CB         35.4499   32.7086    7.1343 C.3       10 UNK        -0.1982 
     62 C          33.9667   30.6185    6.9651 C.2       10 UNK         0.4970 
     63 O          34.2638   30.4030    8.1420 O.2       10 UNK        -0.4916 
     64 N          33.1975   29.8037    6.2391 N.am      11 UNK        -0.4279 
     65 CA         32.5226   28.5930    6.7222 C.3       11 UNK         0.1003 
     66 C          31.3200   28.9163    7.6499 C.2       11 UNK         0.5709 
     67 N          30.9850   28.0144    8.5629 N.am      11 UNK        -0.7358 
     68 O          30.6747   29.9578    7.5378 O.2       11 UNK        -0.4999 
     69 C69        32.0915   27.6900    5.5387 C.3       12 UNK        -0.0954 
     70 S70        33.5297   27.1187    4.5727 S.3       12 UNK        -0.2268 
     71 C71        33.5820   25.3476    4.9954 C.3       12 UNK         0.0203 
     72 H72        33.3908   28.6234   -4.5085 H         1 UNK         0.0888 
     73 H73        31.8622   28.2973   -5.3288 H         1 UNK         0.0888 
     74 H74        32.1540   29.8799   -4.6027 H         1 UNK         0.0888 
     75 H75        30.4510   27.0500   -4.0869 H         1 UNK         0.3017 
     76 H76        30.0199   27.6276   -1.2878 H         1 UNK         0.0873 
     77 H77        31.9119   25.8592   -1.3628 H         1 UNK         0.0745 
     78 H78        30.7554   24.7465   -2.0568 H         1 UNK         0.0745 
     79 H79        32.3274   24.0163    0.2961 H         1 UNK         0.0705 
     80 H80        30.9335   22.9546    0.3226 H         1 UNK         0.0705 
     81 H81        33.1585   25.0897    2.3269 H         1 UNK         0.1334 
     82 H82        31.5592   23.8781    6.1130 H         1 UNK         0.1417 
     83 H83        29.6938   22.5678    2.4760 H         1 UNK         0.1562 
     84 H84        29.6444   22.5074    6.2665 H         1 UNK         0.0748 
     85 H85        29.5901   21.3023    5.0049 H         1 UNK         0.0748 
     86 H86        28.7624   24.9304    5.5172 H         1 UNK         0.0940 
     87 H87        27.0705   24.8988    5.8965 H         1 UNK         0.0940 
     88 H88        28.1962   25.1066    3.0547 H         1 UNK         0.0703 
     89 H89        26.1773   24.9226    2.2538 H         1 UNK         0.3081 
     90 H90        23.0704   24.4878    3.5180 H         1 UNK         0.0719 
     91 H91        23.4862   27.2888    2.3304 H         1 UNK         0.0809 
     92 H92        21.9739   26.3798    2.3106 H         1 UNK         0.0809 
     93 H93        22.6517   26.9242    3.8334 H         1 UNK         0.0809 
     94 H94        23.9235   25.3534    0.8786 H         1 UNK         0.2990 
     95 H95        25.5009   22.4437   -0.1037 H         1 UNK         0.0690 
     96 H96        23.7765   22.0811   -1.8469 H         1 UNK         0.0788 
     97 H97        22.6101   23.0426   -0.9361 H         1 UNK         0.0788 
     98 H98        23.1850   21.5088   -0.2976 H         1 UNK         0.0788 
     99 H99        24.5181   24.4512   -1.7764 H         1 UNK         0.2993 
    100 H100       26.0960   25.8994   -2.6581 H         1 UNK         0.0949 
    101 H101       25.5726   28.2760   -2.0069 H         1 UNK         0.0767 
    102 H102       24.3478   27.1735   -1.4009 H         1 UNK         0.0767 
    103 H103       25.5684   27.8157   -0.3071 H         1 UNK         0.0767 
    104 H104       27.9754   27.0776   -0.6434 H         1 UNK         0.3013 
    105 H105       26.5600   27.3406    2.3902 H         1 UNK         0.3121 
    106 H106       28.0218   29.6089    3.6511 H         1 UNK         0.0774 
    107 H107       26.6028   30.9993    2.1491 H         1 UNK         0.0815 
    108 H108       25.8507   29.5637    1.4695 H         1 UNK         0.0815 
    109 H109       25.5831   29.9868    3.1601 H         1 UNK         0.0815 
    110 H110       29.7781   30.4937    2.4790 H         1 UNK         0.2987 
    111 H111       30.4411   29.4681   -0.1809 H         1 UNK         0.0949 
    112 H112       32.5622   28.4325    0.6070 H         1 UNK         0.0806 
    113 H113       32.2442   28.9339    2.2646 H         1 UNK         0.0806 
    114 H114       31.2541   27.6962    1.5084 H         1 UNK         0.0806 
    115 H115       32.5834   30.3152   -0.8720 H         1 UNK         0.3010 
    116 H116       32.8838   33.1560   -0.4189 H         1 UNK         0.0829 
    117 H117       33.4759   32.0840   -2.5852 H         1 UNK         0.0813 
    118 H118       34.8839   32.8763   -1.8956 H         1 UNK         0.0813 
    119 H119       34.7297   31.1266   -1.7985 H         1 UNK         0.0813 
    120 H120       34.2492   30.2943    1.0550 H         1 UNK         0.3038 
    121 H121       36.3011   31.7166    2.6255 H         1 UNK         0.0769 
    122 H122       36.6657   29.4273    3.5920 H         1 UNK         0.0811 
    123 H123       36.7470   29.3813    1.8393 H         1 UNK         0.0811 
    124 H124       35.3036   28.8063    2.6721 H         1 UNK         0.0811 
    125 H125       36.1896   31.6468    4.9871 H         1 UNK         0.3204 
    126 H126       33.6327   32.5013    6.0278 H         1 UNK         0.0748 
    127 H127       34.9599   33.0019    8.0639 H         1 UNK         0.0771 
    128 H128       36.3478   32.1494    7.4006 H         1 UNK         0.0771 
    129 H129       35.7608   33.6262    6.6343 H         1 UNK         0.0771 
    130 H130       33.0102   30.0730    5.2770 H         1 UNK         0.2980 
    131 H131       33.2478   28.0374    7.3205 H         1 UNK         0.0545 
    132 H132       30.2006   28.2002    9.1679 H         1 UNK         0.3459 
    133 H133       31.5010   27.1544    8.6621 H         1 UNK         0.3459 
    134 H134       31.5293   26.8242    5.8930 H         1 UNK         0.0616 
    135 H135       31.4203   28.2294    4.8674 H         1 UNK         0.0616 
    136 H136       33.5252   25.2329    6.0790 H         1 UNK         0.0634 
    137 H137       34.5495   24.9452    4.6927 H         1 UNK         0.0634 
@<TRIPOS>BOND
     1    1    2 1    
     2    1   72 1    
     3    1   73 1    
     4    1   74 1    
     5    2    3 2    
     6    2    4 am   BACKBONE|DICT|INTERRES
     7    4    5 1    
     8    4   75 1    
     9    5    6 1    
    10    5   35 1    
    11    5   76 1    
    12    6    7 1    
    13    6   77 1    
    14    6   78 1    
    15    7    8 1    
    16    8    9 1    
    17    8   79 1    
    18    8   80 1    
    19    9   10 ar   
    20    9   14 ar   
    21   10   11 ar   
    22   10   81 1    
    23   11   12 ar   
    24   11   71 1    
    25   12   13 ar   
    26   12   82 1    
    27   13   14 ar   
    28   13   15 1    
    29   14   83 1    
    30   15   16 1    
    31   15   84 1    
    32   15   85 1    
    33   16   17 1    
    34   17   18 1    
    35   17   86 1    
    36   17   87 1    
    37   18   19 1    
    38   18   37 1    
    39   18   88 1    
    40   19   20 am   BACKBONE|DICT|INTERRES
    41   19   89 1    
    42   20   21 2    
    43   20   22 1    
    44   22   23 1    
    45   22   24 1    
    46   22   90 1    
    47   23   91 1    
    48   23   92 1    
    49   23   93 1    
    50   24   25 am   BACKBONE|DICT|INTERRES
    51   24   94 1    
    52   25   26 2    
    53   25   27 1    
    54   27   28 1    
    55   27   29 1    
    56   27   95 1    
    57   28   96 1    
    58   28   97 1    
    59   28   98 1    
    60   29   30 am   BACKBONE|DICT|INTERRES
    61   29   99 1    
    62   30   31 2    
    63   30   32 1    
    64   32   33 1    
    65   32   34 1    
    66   32  100 1    
    67   33  101 1    
    68   33  102 1    
    69   33  103 1    
    70   34   35 am   BACKBONE|DICT|INTERRES
    71   34  104 1    
    72   35   36 2    
    73   37   38 2    
    74   37   39 am   BACKBONE|DICT|INTERRES
    75   39   40 1    
    76   39  105 1    
    77   40   41 1    
    78   40   42 1    
    79   40  106 1    
    80   41  107 1    
    81   41  108 1    
    82   41  109 1    
    83   42   43 2    
    84   42   44 am   BACKBONE|DICT|INTERRES
    85   44   45 1    
    86   44  110 1    
    87   45   46 1    
    88   45   47 1    
    89   45  111 1    
    90   46  112 1    
    91   46  113 1    
    92   46  114 1    
    93   47   48 2    
    94   47   49 am   BACKBONE|DICT|INTERRES
    95   49   50 1    
    96   49  115 1    
    97   50   51 1    
    98   50   52 1    
    99   50  116 1    
   100   51  117 1    
   101   51  118 1    
   102   51  119 1    
   103   52   53 2    
   104   52   54 am   BACKBONE|DICT|INTERRES
   105   54   55 1    
   106   54  120 1    
   107   55   56 1    
   108   55   57 1    
   109   55  121 1    
   110   56  122 1    
   111   56  123 1    
   112   56  124 1    
   113   57   58 2    
   114   57   59 am   BACKBONE|DICT|INTERRES
   115   59   60 1    
   116   59  125 1    
   117   60   61 1    
   118   60   62 1    
   119   60  126 1    
   120   61  127 1    
   121   61  128 1    
   122   61  129 1    
   123   62   63 2    
   124   62   64 am   BACKBONE|DICT|INTERRES
   125   64   65 1    
   126   64  130 1    
   127   65   66 1    
   128   65   69 1    
   129   65  131 1    
   130   66   67 am   BACKBONE|DICT|INTERRES
   131   66   68 2    
   132   67  132 1    
   133   67  133 1    
   134   69   70 1    
   135   69  134 1    
   136   69  135 1    
   137   70   71 1    
   138   71  136 1    
   139   71  137 1    
@<TRIPOS>SUBSTRUCTURE
     1 UNK         1 GROUP             0       ****    0 ROOT    
