@<TRIPOS>MOLECULE
3R136
137   139    1
SMALL
USER_CHARGES


@<TRIPOS>ATOM
      1 CA         28.3106   20.7062   -1.6813 C.3       0 UNK        -0.1979 
      2 C          29.0628   21.9008   -2.2665 C.2       0 UNK         0.4864 
      3 O          29.0300   22.0720   -3.4844 O.2       0 UNK        -0.5359 
      4 N          29.7588   22.7479   -1.4916 N.am      1 UNK        -0.4318 
      5 CA         29.9379   22.7895   -0.0322 C.3       1 UNK         0.0824 
      6 C6         30.6279   21.5259    0.5672 C.3       12 UNK        -0.0944 
      7 S7         32.4038   21.4835    0.1397 S.3       12 UNK        -0.2672 
      8 C8         33.2193   21.8614    1.7347 C.3       12 UNK         0.0333 
      9 C9         32.6239   23.0803    2.4307 C.ar      12 UNK        -0.0807 
     10 C10        32.0500   22.9569    3.6999 C.ar      12 UNK        -0.0894 
     11 C11        31.4236   24.0475    4.3112 C.ar      12 UNK        -0.0804 
     12 C12        31.3437   25.2628    3.6176 C.ar      12 UNK        -0.0824 
     13 C13        31.9443   25.4077    2.3634 C.ar      12 UNK        -0.0762 
     14 C14        32.6107   24.3216    1.7908 C.ar      12 UNK        -0.0782 
     15 C15        31.8418   26.7197    1.6018 C.3       12 UNK         0.0230 
     16 S16        30.7975   26.5044    0.1301 S.3       12 UNK        -0.2608 
     17 C17        30.5662   28.2205   -0.4442 C.3       12 UNK        -0.0989 
     18 CA         29.2179   28.8474    0.0022 C.3       5 UNK         0.0716 
     19 N          28.0845   27.9452   -0.2362 N.am      5 UNK        -0.4135 
     20 C          27.3978   27.8743   -1.3845 C.2       4 UNK         0.5031 
     21 O          27.5647   28.6487   -2.3280 O.2       4 UNK        -0.5229 
     22 CA         26.3637   26.7397   -1.5355 C.3       4 UNK         0.0329 
     23 CB         26.9633   25.5867   -2.3573 C.3       4 UNK        -0.2001 
     24 N          25.8706   26.2075   -0.2636 N.am      4 UNK        -0.4303 
     25 C          25.1200   26.8908    0.6124 C.2       3 UNK         0.5044 
     26 O          24.6929   28.0260    0.4021 O.2       3 UNK        -0.5152 
     27 CA         24.8159   26.2217    1.9675 C.3       3 UNK         0.0319 
     28 CB         23.3791   25.6757    1.9819 C.3       3 UNK        -0.2001 
     29 N          25.7361   25.1490    2.3666 N.am      3 UNK        -0.4354 
     30 C          27.0696   25.2401    2.4732 C.2       2 UNK         0.4964 
     31 O          27.7095   26.2495    2.1774 O.2       2 UNK        -0.5047 
     32 CA         27.8294   23.9975    2.9714 C.3       2 UNK         0.0288 
     33 CB         26.9269   22.8075    3.3710 C.3       2 UNK        -0.2113 
     34 N          28.8530   23.5633    2.0155 N.am      2 UNK        -0.4145 
     35 C          28.6658   23.2176    0.7325 C.2       1 UNK         0.5006 
     36 O          27.5677   23.2449    0.1694 O.2       1 UNK        -0.5103 
     37 C          29.2530   29.4009    1.4419 C.2       5 UNK         0.5055 
     38 O          30.2258   30.0704    1.8064 O.2       5 UNK        -0.5220 
     39 N          28.2040   29.1430    2.2363 N.am      6 UNK        -0.4450 
     40 CA         28.0206   29.6494    3.5970 C.3       6 UNK         0.0367 
     41 CB         26.7298   29.0630    4.1891 C.3       6 UNK        -0.1929 
     42 C          27.9804   31.1847    3.6184 C.2       6 UNK         0.5070 
     43 O          27.3239   31.7843    2.7645 O.2       6 UNK        -0.5237 
     44 N          28.7206   31.7871    4.5583 N.am      7 UNK        -0.4739 
     45 CA         28.9715   33.2269    4.7458 C.3       7 UNK         0.0276 
     46 CB         27.6670   33.9989    5.0253 C.3       7 UNK        -0.1927 
     47 C          29.7823   33.8987    3.6175 C.2       7 UNK         0.5013 
     48 O          30.6048   34.7650    3.9154 O.2       7 UNK        -0.5193 
     49 N          29.5573   33.4913    2.3607 N.am      8 UNK        -0.4253 
     50 CA         30.2775   33.9419    1.1670 C.3       8 UNK         0.0242 
     51 CB         29.5925   33.3781   -0.0890 C.3       8 UNK        -0.2000 
     52 C          31.7660   33.5583    1.1970 C.2       8 UNK         0.4948 
     53 O          32.6142   34.4041    0.9092 O.2       8 UNK        -0.5275 
     54 N          32.0466   32.3045    1.5715 N.am      9 UNK        -0.4246 
     55 CA         33.3899   31.7911    1.8466 C.3       9 UNK         0.0261 
     56 CB         33.8133   30.8050    0.7460 C.3       9 UNK        -0.1959 
     57 C          33.4455   31.1196    3.2260 C.2       9 UNK         0.5033 
     58 O          34.4537   31.2712    3.9178 O.2       9 UNK        -0.5390 
     59 N          32.3635   30.4162    3.6010 N.am      10 UNK        -0.4215 
     60 CA         32.1784   29.6350    4.8297 C.3       10 UNK         0.0240 
     61 CB         32.3103   30.5261    6.0850 C.3       10 UNK        -0.1982 
     62 C          33.0705   28.3789    4.8910 C.2       10 UNK         0.4970 
     63 O          33.8349   28.1014    3.9647 O.2       10 UNK        -0.4916 
     64 N          32.9031   27.6052    5.9690 N.am      11 UNK        -0.4279 
     65 CA         33.5441   26.2947    6.1713 C.3       11 UNK         0.1003 
     66 C          35.0431   26.3530    6.5875 C.2       11 UNK         0.5709 
     67 N          35.6141   27.5187    6.8673 N.am      11 UNK        -0.7358 
     68 O          35.7034   25.3188    6.6535 O.2       11 UNK        -0.4999 
     69 C69        32.7259   25.3942    7.1391 C.3       12 UNK        -0.0954 
     70 S70        30.9357   25.3384    6.7722 S.3       12 UNK        -0.2268 
     71 C71        30.8071   23.8692    5.6986 C.3       12 UNK         0.0203 
     72 H72        27.3863   20.5445   -2.2353 H         1 UNK         0.0888 
     73 H73        28.9159   19.8049   -1.7722 H         1 UNK         0.0888 
     74 H74        28.0367   20.8316   -0.6371 H         1 UNK         0.0888 
     75 H75        30.2161   23.5128   -1.9665 H         1 UNK         0.3017 
     76 H76        30.6178   23.6261    0.1132 H         1 UNK         0.0873 
     77 H77        30.5323   21.4851    1.6528 H         1 UNK         0.0745 
     78 H78        30.1727   20.6027    0.2142 H         1 UNK         0.0745 
     79 H79        34.2819   22.0331    1.5582 H         1 UNK         0.0705 
     80 H80        33.1526   20.9802    2.3748 H         1 UNK         0.0705 
     81 H81        32.0764   22.0023    4.2082 H         1 UNK         0.1334 
     82 H82        30.8219   26.1017    4.0569 H         1 UNK         0.1417 
     83 H83        33.0595   24.4247    0.8117 H         1 UNK         0.1562 
     84 H84        32.8365   27.0558    1.3053 H         1 UNK         0.0748 
     85 H85        31.4234   27.5008    2.2373 H         1 UNK         0.0748 
     86 H86        30.5947   28.1948   -1.5346 H         1 UNK         0.0940 
     87 H87        31.4180   28.8350   -0.1550 H         1 UNK         0.0940 
     88 H88        29.0691   29.7436   -0.6036 H         1 UNK         0.0703 
     89 H89        27.9274   27.2402    0.4792 H         1 UNK         0.3081 
     90 H90        25.5099   27.1445   -2.0829 H         1 UNK         0.0719 
     91 H91        27.2860   25.9332   -3.3400 H         1 UNK         0.0809 
     92 H92        27.8340   25.1521   -1.8645 H         1 UNK         0.0809 
     93 H93        26.2373   24.7895   -2.5176 H         1 UNK         0.0809 
     94 H94        26.1877   25.2815   -0.0048 H         1 UNK         0.2990 
     95 H95        24.8887   27.0021    2.7270 H         1 UNK         0.0690 
     96 H96        23.1035   25.3052    2.9695 H         1 UNK         0.0788 
     97 H97        23.2508   24.8609    1.2679 H         1 UNK         0.0788 
     98 H98        22.6610   26.4544    1.7200 H         1 UNK         0.0788 
     99 H99        25.3111   24.2639    2.6025 H         1 UNK         0.2993 
    100 H100       28.3583   24.3269    3.8651 H         1 UNK         0.0949 
    101 H101       27.5236   21.9872    3.7706 H         1 UNK         0.0767 
    102 H102       26.2184   23.0894    4.1512 H         1 UNK         0.0767 
    103 H103       26.3596   22.4156    2.5257 H         1 UNK         0.0767 
    104 H104       29.8017   23.5879    2.3662 H         1 UNK         0.3013 
    105 H105       27.4545   28.5761    1.8698 H         1 UNK         0.3121 
    106 H106       28.8635   29.3016    4.1958 H         1 UNK         0.0774 
    107 H107       26.5674   29.4228    5.2059 H         1 UNK         0.0815 
    108 H108       25.8543   29.3410    3.6007 H         1 UNK         0.0815 
    109 H109       26.7739   27.9748    4.2357 H         1 UNK         0.0815 
    110 H110       29.2248   31.1919    5.2006 H         1 UNK         0.2987 
    111 H111       29.5876   33.2992    5.6439 H         1 UNK         0.0949 
    112 H112       27.0011   34.0069    4.1621 H         1 UNK         0.0806 
    113 H113       27.1227   33.5673    5.8652 H         1 UNK         0.0806 
    114 H114       27.8789   35.0389    5.2770 H         1 UNK         0.0806 
    115 H115       28.8160   32.8077    2.2302 H         1 UNK         0.3010 
    116 H116       30.2147   35.0316    1.1331 H         1 UNK         0.0829 
    117 H117       28.5572   33.7123   -0.1591 H         1 UNK         0.0813 
    118 H118       30.1022   33.7115   -0.9941 H         1 UNK         0.0813 
    119 H119       29.5928   32.2876   -0.0969 H         1 UNK         0.0813 
    120 H120       31.2716   31.6715    1.7452 H         1 UNK         0.3038 
    121 H121       34.1078   32.6141    1.8619 H         1 UNK         0.0769 
    122 H122       34.8444   30.4815    0.8935 H         1 UNK         0.0811 
    123 H123       33.7521   31.2599   -0.2426 H         1 UNK         0.0811 
    124 H124       33.1927   29.9101    0.7471 H         1 UNK         0.0811 
    125 H125       31.6170   30.3004    2.9181 H         1 UNK         0.3204 
    126 H126       31.1521   29.2706    4.7871 H         1 UNK         0.0748 
    127 H127       31.7308   31.4437    5.9821 H         1 UNK         0.0771 
    128 H128       31.9447   30.0174    6.9773 H         1 UNK         0.0771 
    129 H129       33.3460   30.8089    6.2760 H         1 UNK         0.0771 
    130 H130       32.2547   27.8877    6.6885 H         1 UNK         0.2980 
    131 H131       33.5508   25.7915    5.2037 H         1 UNK         0.0545 
    132 H132       35.0865   28.3738    6.8018 H         1 UNK         0.3459 
    133 H133       36.5862   27.5418    7.1319 H         1 UNK         0.3459 
    134 H134       33.1181   24.3756    7.1360 H         1 UNK         0.0616 
    135 H135       32.8333   25.7547    8.1637 H         1 UNK         0.0616 
    136 H136       31.2678   23.0258    6.2154 H         1 UNK         0.0634 
    137 H137       29.7535   23.6153    5.5851 H         1 UNK         0.0634 
@<TRIPOS>BOND
     1    1    2 1    
     2    1   72 1    
     3    1   73 1    
     4    1   74 1    
     5    2    3 2    
     6    2    4 am   BACKBONE|DICT|INTERRES
     7    4    5 1    
     8    4   75 1    
     9    5    6 1    
    10    5   35 1    
    11    5   76 1    
    12    6    7 1    
    13    6   77 1    
    14    6   78 1    
    15    7    8 1    
    16    8    9 1    
    17    8   79 1    
    18    8   80 1    
    19    9   10 ar   
    20    9   14 ar   
    21   10   11 ar   
    22   10   81 1    
    23   11   12 ar   
    24   11   71 1    
    25   12   13 ar   
    26   12   82 1    
    27   13   14 ar   
    28   13   15 1    
    29   14   83 1    
    30   15   16 1    
    31   15   84 1    
    32   15   85 1    
    33   16   17 1    
    34   17   18 1    
    35   17   86 1    
    36   17   87 1    
    37   18   19 1    
    38   18   37 1    
    39   18   88 1    
    40   19   20 am   BACKBONE|DICT|INTERRES
    41   19   89 1    
    42   20   21 2    
    43   20   22 1    
    44   22   23 1    
    45   22   24 1    
    46   22   90 1    
    47   23   91 1    
    48   23   92 1    
    49   23   93 1    
    50   24   25 am   BACKBONE|DICT|INTERRES
    51   24   94 1    
    52   25   26 2    
    53   25   27 1    
    54   27   28 1    
    55   27   29 1    
    56   27   95 1    
    57   28   96 1    
    58   28   97 1    
    59   28   98 1    
    60   29   30 am   BACKBONE|DICT|INTERRES
    61   29   99 1    
    62   30   31 2    
    63   30   32 1    
    64   32   33 1    
    65   32   34 1    
    66   32  100 1    
    67   33  101 1    
    68   33  102 1    
    69   33  103 1    
    70   34   35 am   BACKBONE|DICT|INTERRES
    71   34  104 1    
    72   35   36 2    
    73   37   38 2    
    74   37   39 am   BACKBONE|DICT|INTERRES
    75   39   40 1    
    76   39  105 1    
    77   40   41 1    
    78   40   42 1    
    79   40  106 1    
    80   41  107 1    
    81   41  108 1    
    82   41  109 1    
    83   42   43 2    
    84   42   44 am   BACKBONE|DICT|INTERRES
    85   44   45 1    
    86   44  110 1    
    87   45   46 1    
    88   45   47 1    
    89   45  111 1    
    90   46  112 1    
    91   46  113 1    
    92   46  114 1    
    93   47   48 2    
    94   47   49 am   BACKBONE|DICT|INTERRES
    95   49   50 1    
    96   49  115 1    
    97   50   51 1    
    98   50   52 1    
    99   50  116 1    
   100   51  117 1    
   101   51  118 1    
   102   51  119 1    
   103   52   53 2    
   104   52   54 am   BACKBONE|DICT|INTERRES
   105   54   55 1    
   106   54  120 1    
   107   55   56 1    
   108   55   57 1    
   109   55  121 1    
   110   56  122 1    
   111   56  123 1    
   112   56  124 1    
   113   57   58 2    
   114   57   59 am   BACKBONE|DICT|INTERRES
   115   59   60 1    
   116   59  125 1    
   117   60   61 1    
   118   60   62 1    
   119   60  126 1    
   120   61  127 1    
   121   61  128 1    
   122   61  129 1    
   123   62   63 2    
   124   62   64 am   BACKBONE|DICT|INTERRES
   125   64   65 1    
   126   64  130 1    
   127   65   66 1    
   128   65   69 1    
   129   65  131 1    
   130   66   67 am   BACKBONE|DICT|INTERRES
   131   66   68 2    
   132   67  132 1    
   133   67  133 1    
   134   69   70 1    
   135   69  134 1    
   136   69  135 1    
   137   70   71 1    
   138   71  136 1    
   139   71  137 1    
@<TRIPOS>SUBSTRUCTURE
     1 UNK         1 GROUP             0       ****    0 ROOT    
