@<TRIPOS>MOLECULE
3R136
137   139    1
SMALL
USER_CHARGES


@<TRIPOS>ATOM
      1 CA         27.1898   23.9290   -2.3119 C.3       0 UNK        -0.1979 
      2 C          27.7555   24.1835   -0.9245 C.2       0 UNK         0.4864 
      3 O          27.3326   25.1260   -0.2551 O.2       0 UNK        -0.5359 
      4 N          28.6980   23.3434   -0.4781 N.am      1 UNK        -0.4318 
      5 CA         29.4652   23.4641    0.7744 C.3       1 UNK         0.0824 
      6 C6         30.5490   22.3594    0.8721 C.3       12 UNK        -0.0944 
      7 S7         31.7060   22.4151   -0.5420 S.3       12 UNK        -0.2672 
      8 C8         33.2982   22.8215    0.2549 C.3       12 UNK         0.0333 
      9 C9         33.2567   24.0813    1.1152 C.ar      12 UNK        -0.0807 
     10 C10        33.8103   24.0599    2.4001 C.ar      12 UNK        -0.0894 
     11 C11        33.7824   25.2021    3.2048 C.ar      12 UNK        -0.0804 
     12 C12        33.1797   26.3671    2.7245 C.ar      12 UNK        -0.0824 
     13 C13        32.6078   26.3992    1.4500 C.ar      12 UNK        -0.0762 
     14 C14        32.6768   25.2628    0.6383 C.ar      12 UNK        -0.0782 
     15 C15        31.9118   27.6610    0.9653 C.3       12 UNK         0.0230 
     16 S16        30.1386   27.3827    0.6634 S.3       12 UNK        -0.2608 
     17 C17        30.0736   27.2302   -1.1572 C.3       12 UNK        -0.0989 
     18 CA         29.0109   28.1476   -1.8160 C.3       5 UNK         0.0716 
     19 N          27.6575   27.7904   -1.3780 N.am      5 UNK        -0.4135 
     20 C          26.5150   28.2738   -1.8826 C.2       4 UNK         0.5031 
     21 O          26.4658   29.0462   -2.8422 O.2       4 UNK        -0.5229 
     22 CA         25.1917   27.8048   -1.2451 C.3       4 UNK         0.0329 
     23 CB         24.4559   26.8320   -2.1817 C.3       4 UNK        -0.2001 
     24 N          25.3222   27.1805    0.0767 N.am      4 UNK        -0.4303 
     25 C          25.6003   27.8368    1.2111 C.2       3 UNK         0.5044 
     26 O          25.8437   29.0415    1.2564 O.2       3 UNK        -0.5152 
     27 CA         25.5331   27.0452    2.5266 C.3       3 UNK         0.0319 
     28 CB         24.0985   27.1808    3.0905 C.3       3 UNK        -0.2001 
     29 N          25.9349   25.6343    2.3814 N.am      3 UNK        -0.4354 
     30 C          25.9566   24.7340    3.3816 C.2       2 UNK         0.4964 
     31 O          25.6764   24.9992    4.5508 O.2       2 UNK        -0.5047 
     32 CA         26.3442   23.2807    3.0488 C.3       2 UNK         0.0288 
     33 CB         25.0937   22.4650    2.6809 C.3       2 UNK        -0.2113 
     34 N          27.3243   23.1650    1.9729 N.am      2 UNK        -0.4145 
     35 C          28.6149   23.5139    2.0660 C.2       1 UNK         0.5006 
     36 O          29.1428   23.8698    3.1198 O.2       1 UNK        -0.5103 
     37 C          29.3301   29.6498   -1.6191 C.2       5 UNK         0.5055 
     38 O          28.7149   30.3156   -0.7824 O.2       5 UNK        -0.5220 
     39 N          30.3184   30.1507   -2.3752 N.am      6 UNK        -0.4450 
     40 CA         30.7208   31.5638   -2.4203 C.3       6 UNK         0.0367 
     41 CB         31.8322   31.7408   -3.4677 C.3       6 UNK        -0.1929 
     42 C          31.1597   32.1664   -1.0716 C.2       6 UNK         0.5070 
     43 O          30.9552   33.3611   -0.8559 O.2       6 UNK        -0.5237 
     44 N          31.7340   31.3374   -0.1891 N.am      7 UNK        -0.4739 
     45 CA         32.1393   31.7180    1.1690 C.3       7 UNK         0.0276 
     46 CB         33.5182   31.1090    1.4880 C.3       7 UNK        -0.1927 
     47 C          31.0759   31.3808    2.2353 C.2       7 UNK         0.5013 
     48 O          31.3953   31.4123    3.4238 O.2       7 UNK        -0.5193 
     49 N          29.8403   31.0630    1.8124 N.am      8 UNK        -0.4253 
     50 CA         28.6264   30.9027    2.6295 C.3       8 UNK         0.0242 
     51 CB         28.1443   32.2839    3.1208 C.3       8 UNK        -0.2000 
     52 C          28.7431   29.8813    3.7805 C.2       8 UNK         0.4948 
     53 O          28.1233   30.0656    4.8296 O.2       8 UNK        -0.5275 
     54 N          29.5586   28.8391    3.5683 N.am      9 UNK        -0.4246 
     55 CA         29.9345   27.7867    4.5187 C.3       9 UNK         0.0261 
     56 CB         28.7378   26.8607    4.8067 C.3       9 UNK        -0.1959 
     57 C          30.6164   28.3040    5.8036 C.2       9 UNK         0.5033 
     58 O          30.5366   27.6432    6.8421 O.2       9 UNK        -0.5390 
     59 N          31.3072   29.4532    5.7284 N.am      10 UNK        -0.4215 
     60 CA         32.0803   30.0371    6.8300 C.3       10 UNK         0.0240 
     61 CB         32.2400   31.5497    6.5891 C.3       10 UNK        -0.1982 
     62 C          33.4327   29.3184    7.0102 C.2       10 UNK         0.4970 
     63 O          34.4882   29.9251    6.8189 O.2       10 UNK        -0.4916 
     64 N          33.3715   28.0250    7.3455 N.am      11 UNK        -0.4279 
     65 CA         34.5296   27.1287    7.4949 C.3       11 UNK         0.1003 
     66 C          35.3784   27.3606    8.7789 C.2       11 UNK         0.5709 
     67 N          34.9232   28.1464    9.7478 N.am      11 UNK        -0.7358 
     68 O          36.4765   26.8211    8.8937 O.2       11 UNK        -0.4999 
     69 C69        34.1326   25.6323    7.3552 C.3       12 UNK        -0.0954 
     70 S70        33.1224   25.2746    5.8789 S.3       12 UNK        -0.2268 
     71 C71        34.4031   25.1911    4.5926 C.3       12 UNK         0.0203 
     72 H72        27.2786   24.8283   -2.9207 H         1 UNK         0.0888 
     73 H73        27.7136   23.1216   -2.8232 H         1 UNK         0.0888 
     74 H74        26.1358   23.6621   -2.2440 H         1 UNK         0.0888 
     75 H75        28.9976   22.5874   -1.0776 H         1 UNK         0.3017 
     76 H76        29.9730   24.4280    0.7311 H         1 UNK         0.0873 
     77 H77        30.0859   21.3713    0.8977 H         1 UNK         0.0745 
     78 H78        31.1139   22.4502    1.8021 H         1 UNK         0.0745 
     79 H79        33.6105   21.9608    0.8485 H         1 UNK         0.0705 
     80 H80        34.0547   22.9515   -0.5199 H         1 UNK         0.0705 
     81 H81        34.2675   23.1541    2.7745 H         1 UNK         0.1334 
     82 H82        33.1486   27.2443    3.3564 H         1 UNK         0.1417 
     83 H83        32.2460   25.2867   -0.3531 H         1 UNK         0.1562 
     84 H84        32.4168   28.0497    0.0809 H         1 UNK         0.0748 
     85 H85        31.9853   28.4362    1.7266 H         1 UNK         0.0748 
     86 H86        29.8591   26.1886   -1.3976 H         1 UNK         0.0940 
     87 H87        31.0554   27.4196   -1.5927 H         1 UNK         0.0940 
     88 H88        29.0380   27.9600   -2.8914 H         1 UNK         0.0703 
     89 H89        27.5967   27.1119   -0.6269 H         1 UNK         0.3081 
     90 H90        24.5682   28.6941   -1.1307 H         1 UNK         0.0719 
     91 H91        25.0122   25.9051   -2.3171 H         1 UNK         0.0809 
     92 H92        23.4687   26.5785   -1.7950 H         1 UNK         0.0809 
     93 H93        24.3106   27.2720   -3.1694 H         1 UNK         0.0809 
     94 H94        25.1562   26.1860    0.1166 H         1 UNK         0.2990 
     95 H95        26.2276   27.5210    3.2214 H         1 UNK         0.0690 
     96 H96        23.7556   28.2162    3.0550 H         1 UNK         0.0788 
     97 H97        24.0345   26.8765    4.1342 H         1 UNK         0.0788 
     98 H98        23.3855   26.5833    2.5214 H         1 UNK         0.0788 
     99 H99        26.3023   25.3606    1.4742 H         1 UNK         0.2993 
    100 H100       26.7820   22.8454    3.9501 H         1 UNK         0.0949 
    101 H101       25.3370   21.4136    2.5257 H         1 UNK         0.0767 
    102 H102       24.3509   22.5096    3.4788 H         1 UNK         0.0767 
    103 H103       24.6192   22.8391    1.7727 H         1 UNK         0.0767 
    104 H104       26.9776   22.8934    1.0647 H         1 UNK         0.3013 
    105 H105       30.7838   29.5371   -3.0289 H         1 UNK         0.3121 
    106 H106       29.8496   32.1327   -2.7522 H         1 UNK         0.0774 
    107 H107       32.7219   31.1628   -3.2146 H         1 UNK         0.0815 
    108 H108       32.1347   32.7864   -3.5432 H         1 UNK         0.0815 
    109 H109       31.4993   31.4319   -4.4587 H         1 UNK         0.0815 
    110 H110       31.8558   30.3712   -0.4534 H         1 UNK         0.2987 
    111 H111       32.2600   32.8024    1.2196 H         1 UNK         0.0949 
    112 H112       33.5225   30.0232    1.4290 H         1 UNK         0.0806 
    113 H113       34.2748   31.4774    0.7951 H         1 UNK         0.0806 
    114 H114       33.8496   31.3818    2.4910 H         1 UNK         0.0806 
    115 H115       29.6778   30.9930    0.8112 H         1 UNK         0.3010 
    116 H116       27.8663   30.5093    1.9547 H         1 UNK         0.0829 
    117 H117       27.1724   32.2104    3.6102 H         1 UNK         0.0813 
    118 H118       28.8404   32.7197    3.8385 H         1 UNK         0.0813 
    119 H119       28.0338   32.9830    2.2918 H         1 UNK         0.0813 
    120 H120       29.9771   28.7648    2.6508 H         1 UNK         0.3038 
    121 H121       30.6869   27.1812    4.0126 H         1 UNK         0.0769 
    122 H122       28.3328   26.4577    3.8799 H         1 UNK         0.0811 
    123 H123       29.0359   26.0076    5.4174 H         1 UNK         0.0811 
    124 H124       27.9354   27.3779    5.3331 H         1 UNK         0.0811 
    125 H125       31.3174   29.9698    4.8531 H         1 UNK         0.3204 
    126 H126       31.5183   29.9119    7.7581 H         1 UNK         0.0748 
    127 H127       31.2715   32.0383    6.4803 H         1 UNK         0.0771 
    128 H128       32.7529   32.0266    7.4253 H         1 UNK         0.0771 
    129 H129       32.8205   31.7572    5.6892 H         1 UNK         0.0771 
    130 H130       32.4538   27.5994    7.4320 H         1 UNK         0.2980 
    131 H131       35.2041   27.3563    6.6680 H         1 UNK         0.0545 
    132 H132       35.4852   28.2913   10.5718 H         1 UNK         0.3459 
    133 H133       34.0242   28.5922    9.6634 H         1 UNK         0.3459 
    134 H134       33.5583   25.3149    8.2274 H         1 UNK         0.0616 
    135 H135       35.0205   24.9977    7.3289 H         1 UNK         0.0616 
    136 H136       35.0765   26.0439    4.6851 H         1 UNK         0.0634 
    137 H137       35.0085   24.2964    4.7456 H         1 UNK         0.0634 
@<TRIPOS>BOND
     1    1    2 1    
     2    1   72 1    
     3    1   73 1    
     4    1   74 1    
     5    2    3 2    
     6    2    4 am   BACKBONE|DICT|INTERRES
     7    4    5 1    
     8    4   75 1    
     9    5    6 1    
    10    5   35 1    
    11    5   76 1    
    12    6    7 1    
    13    6   77 1    
    14    6   78 1    
    15    7    8 1    
    16    8    9 1    
    17    8   79 1    
    18    8   80 1    
    19    9   10 ar   
    20    9   14 ar   
    21   10   11 ar   
    22   10   81 1    
    23   11   12 ar   
    24   11   71 1    
    25   12   13 ar   
    26   12   82 1    
    27   13   14 ar   
    28   13   15 1    
    29   14   83 1    
    30   15   16 1    
    31   15   84 1    
    32   15   85 1    
    33   16   17 1    
    34   17   18 1    
    35   17   86 1    
    36   17   87 1    
    37   18   19 1    
    38   18   37 1    
    39   18   88 1    
    40   19   20 am   BACKBONE|DICT|INTERRES
    41   19   89 1    
    42   20   21 2    
    43   20   22 1    
    44   22   23 1    
    45   22   24 1    
    46   22   90 1    
    47   23   91 1    
    48   23   92 1    
    49   23   93 1    
    50   24   25 am   BACKBONE|DICT|INTERRES
    51   24   94 1    
    52   25   26 2    
    53   25   27 1    
    54   27   28 1    
    55   27   29 1    
    56   27   95 1    
    57   28   96 1    
    58   28   97 1    
    59   28   98 1    
    60   29   30 am   BACKBONE|DICT|INTERRES
    61   29   99 1    
    62   30   31 2    
    63   30   32 1    
    64   32   33 1    
    65   32   34 1    
    66   32  100 1    
    67   33  101 1    
    68   33  102 1    
    69   33  103 1    
    70   34   35 am   BACKBONE|DICT|INTERRES
    71   34  104 1    
    72   35   36 2    
    73   37   38 2    
    74   37   39 am   BACKBONE|DICT|INTERRES
    75   39   40 1    
    76   39  105 1    
    77   40   41 1    
    78   40   42 1    
    79   40  106 1    
    80   41  107 1    
    81   41  108 1    
    82   41  109 1    
    83   42   43 2    
    84   42   44 am   BACKBONE|DICT|INTERRES
    85   44   45 1    
    86   44  110 1    
    87   45   46 1    
    88   45   47 1    
    89   45  111 1    
    90   46  112 1    
    91   46  113 1    
    92   46  114 1    
    93   47   48 2    
    94   47   49 am   BACKBONE|DICT|INTERRES
    95   49   50 1    
    96   49  115 1    
    97   50   51 1    
    98   50   52 1    
    99   50  116 1    
   100   51  117 1    
   101   51  118 1    
   102   51  119 1    
   103   52   53 2    
   104   52   54 am   BACKBONE|DICT|INTERRES
   105   54   55 1    
   106   54  120 1    
   107   55   56 1    
   108   55   57 1    
   109   55  121 1    
   110   56  122 1    
   111   56  123 1    
   112   56  124 1    
   113   57   58 2    
   114   57   59 am   BACKBONE|DICT|INTERRES
   115   59   60 1    
   116   59  125 1    
   117   60   61 1    
   118   60   62 1    
   119   60  126 1    
   120   61  127 1    
   121   61  128 1    
   122   61  129 1    
   123   62   63 2    
   124   62   64 am   BACKBONE|DICT|INTERRES
   125   64   65 1    
   126   64  130 1    
   127   65   66 1    
   128   65   69 1    
   129   65  131 1    
   130   66   67 am   BACKBONE|DICT|INTERRES
   131   66   68 2    
   132   67  132 1    
   133   67  133 1    
   134   69   70 1    
   135   69  134 1    
   136   69  135 1    
   137   70   71 1    
   138   71  136 1    
   139   71  137 1    
@<TRIPOS>SUBSTRUCTURE
     1 UNK         1 GROUP             0       ****    0 ROOT    
