@<TRIPOS>MOLECULE
3R136
137   139    1
SMALL
USER_CHARGES


@<TRIPOS>ATOM
      1 CA         32.9066   27.4399   -0.2223 C.3       0 UNK        -0.1979 
      2 C          31.4306   27.2626    0.0946 C.2       0 UNK         0.4864 
      3 O          30.9273   27.8727    1.0405 O.2       0 UNK        -0.5359 
      4 N          30.7315   26.4471   -0.7025 N.am      1 UNK        -0.4318 
      5 CA         29.3437   26.0574   -0.4756 C.3       1 UNK         0.0824 
      6 C6         29.2209   24.7113    0.2850 C.3       12 UNK        -0.0944 
      7 S7         29.9831   23.2354   -0.4820 S.3       12 UNK        -0.2672 
      8 C8         31.7277   23.3097    0.0546 C.3       12 UNK         0.0333 
      9 C9         31.9621   23.4563    1.5577 C.ar      12 UNK        -0.0807 
     10 C10        33.1033   24.1398    1.9891 C.ar      12 UNK        -0.0894 
     11 C11        33.3916   24.2665    3.3495 C.ar      12 UNK        -0.0804 
     12 C12        32.5194   23.7086    4.2873 C.ar      12 UNK        -0.0824 
     13 C13        31.3626   23.0397    3.8769 C.ar      12 UNK        -0.0762 
     14 C14        31.0971   22.9003    2.5109 C.ar      12 UNK        -0.0782 
     15 C15        30.4264   22.4484    4.9211 C.3       12 UNK         0.0230 
     16 S16        29.6161   23.7513    5.9063 S.3       12 UNK        -0.2608 
     17 C17        27.9678   23.8984    5.1309 C.3       12 UNK        -0.0989 
     18 CA         27.8426   24.9907    4.0383 C.3       5 UNK         0.0716 
     19 N          26.4863   25.0016    3.4806 N.am      5 UNK        -0.4135 
     20 C          26.0888   25.7459    2.4409 C.2       4 UNK         0.5031 
     21 O          26.8601   26.3986    1.7335 O.2       4 UNK        -0.5229 
     22 CA         24.5697   25.8049    2.1933 C.3       4 UNK         0.0329 
     23 CB         23.8782   26.6234    3.2979 C.3       4 UNK        -0.2001 
     24 N          24.2526   26.4176    0.9027 N.am      4 UNK        -0.4303 
     25 C          24.3926   25.8196   -0.2857 C.2       3 UNK         0.5044 
     26 O          24.7039   24.6367   -0.4290 O.2       3 UNK        -0.5152 
     27 CA         24.1944   26.6996   -1.5257 C.3       3 UNK         0.0319 
     28 CB         23.2495   27.9013   -1.3124 C.3       3 UNK        -0.2001 
     29 N          25.5151   27.1686   -1.9221 N.am      3 UNK        -0.4354 
     30 C          25.9452   27.3433   -3.1770 C.2       2 UNK         0.4964 
     31 O          25.2306   27.2129   -4.1715 O.2       2 UNK        -0.5047 
     32 CA         27.4290   27.7264   -3.3605 C.3       2 UNK         0.0288 
     33 CB         27.5624   29.2267   -3.6700 C.3       2 UNK        -0.2113 
     34 N          28.2738   27.3998   -2.2044 N.am      2 UNK        -0.4145 
     35 C          28.5536   26.1548   -1.7903 C.2       1 UNK         0.5006 
     36 O          28.2149   25.1440   -2.4065 O.2       1 UNK        -0.5103 
     37 C          28.2067   26.4038    4.5507 C.2       5 UNK         0.5055 
     38 O          27.4010   27.0118    5.2604 O.2       5 UNK        -0.5220 
     39 N          29.3969   26.8891    4.1673 N.am      6 UNK        -0.4450 
     40 CA         29.9447   28.2198    4.4626 C.3       6 UNK         0.0367 
     41 CB         30.1002   28.4364    5.9859 C.3       6 UNK        -0.1929 
     42 C          29.1741   29.3759    3.7874 C.2       6 UNK         0.5070 
     43 O          29.1765   30.4937    4.3064 O.2       6 UNK        -0.5237 
     44 N          28.5232   29.1085    2.6456 N.am      7 UNK        -0.4739 
     45 CA         27.7898   30.1174    1.8746 C.3       7 UNK         0.0276 
     46 CB         26.7490   29.4358    0.9721 C.3       7 UNK        -0.1927 
     47 C          28.6978   31.0340    1.0377 C.2       7 UNK         0.5013 
     48 O          28.2921   32.1635    0.7603 O.2       7 UNK        -0.5193 
     49 N          29.8774   30.5439    0.6278 N.am      8 UNK        -0.4253 
     50 CA         30.7944   31.2573   -0.2708 C.3       8 UNK         0.0242 
     51 CB         30.7539   30.6002   -1.6630 C.3       8 UNK        -0.2000 
     52 C          32.2304   31.3652    0.2705 C.2       8 UNK         0.4948 
     53 O          33.0865   31.9078   -0.4301 O.2       8 UNK        -0.5275 
     54 N          32.4858   30.8811    1.4907 N.am      9 UNK        -0.4246 
     55 CA         33.7622   31.0002    2.1913 C.3       9 UNK         0.0261 
     56 CB         34.7191   29.8764    1.7567 C.3       9 UNK        -0.1959 
     57 C          33.4939   30.9370    3.6958 C.2       9 UNK         0.5033 
     58 O          32.4744   30.3804    4.1093 O.2       9 UNK        -0.5390 
     59 N          34.4213   31.4762    4.4957 N.am      10 UNK        -0.4215 
     60 CA         34.3526   31.5238    5.9604 C.3       10 UNK         0.0240 
     61 CB         35.2602   32.6627    6.4642 C.3       10 UNK        -0.1982 
     62 C          34.6812   30.1659    6.6170 C.2       10 UNK         0.4970 
     63 O          35.5787   30.0875    7.4580 O.2       10 UNK        -0.4916 
     64 N          33.9528   29.1196    6.2143 N.am      11 UNK        -0.4279 
     65 CA         34.0808   27.7475    6.7293 C.3       11 UNK         0.1003 
     66 C          33.4756   27.5329    8.1482 C.2       11 UNK         0.5709 
     67 N          32.7193   28.4729    8.7038 N.am      11 UNK        -0.7358 
     68 O          33.7071   26.4940    8.7620 O.2       11 UNK        -0.4999 
     69 C69        33.5243   26.7041    5.7267 C.3       12 UNK        -0.0954 
     70 S70        34.3545   26.7544    4.1037 S.3       12 UNK        -0.2268 
     71 C71        34.6566   24.9865    3.7969 C.3       12 UNK         0.0203 
     72 H72        33.5076   27.1032    0.6215 H         1 UNK         0.0888 
     73 H73        33.1291   28.4895   -0.4077 H         1 UNK         0.0888 
     74 H74        33.2077   26.8695   -1.1006 H         1 UNK         0.0888 
     75 H75        31.1745   26.0101   -1.4990 H         1 UNK         0.3017 
     76 H76        28.8780   26.8008    0.1735 H         1 UNK         0.0873 
     77 H77        29.6393   24.8467    1.2796 H         1 UNK         0.0745 
     78 H78        28.1673   24.4779    0.4457 H         1 UNK         0.0745 
     79 H79        32.2224   22.3963   -0.2774 H         1 UNK         0.0705 
     80 H80        32.2142   24.1248   -0.4814 H         1 UNK         0.0705 
     81 H81        33.7822   24.5646    1.2622 H         1 UNK         0.1334 
     82 H82        32.7339   23.7934    5.3431 H         1 UNK         0.1417 
     83 H83        30.2171   22.3596    2.1908 H         1 UNK         0.1562 
     84 H84        31.0080   21.8170    5.5943 H         1 UNK         0.0748 
     85 H85        29.6839   21.7940    4.4627 H         1 UNK         0.0748 
     86 H86        27.2534   24.0959    5.9327 H         1 UNK         0.0940 
     87 H87        27.6817   22.9288    4.7206 H         1 UNK         0.0940 
     88 H88        28.5232   24.7276    3.2289 H         1 UNK         0.0703 
     89 H89        25.7822   24.5243    4.0234 H         1 UNK         0.3081 
     90 H90        24.1768   24.7859    2.2058 H         1 UNK         0.0719 
     91 H91        24.2653   27.6424    3.3464 H         1 UNK         0.0809 
     92 H92        22.8017   26.6807    3.1352 H         1 UNK         0.0809 
     93 H93        24.0288   26.1742    4.2803 H         1 UNK         0.0809 
     94 H94        24.0203   27.3991    0.9177 H         1 UNK         0.2990 
     95 H95        23.7757   26.0607   -2.3065 H         1 UNK         0.0690 
     96 H96        23.0509   28.4084   -2.2569 H         1 UNK         0.0788 
     97 H97        23.6663   28.6415   -0.6285 H         1 UNK         0.0788 
     98 H98        22.2864   27.5792   -0.9140 H         1 UNK         0.0788 
     99 H99        26.1851   27.2520   -1.1714 H         1 UNK         0.2993 
    100 H100       27.8006   27.1637   -4.2199 H         1 UNK         0.0949 
    101 H101       27.2524   29.8442   -2.8258 H         1 UNK         0.0767 
    102 H102       28.5898   29.4882   -3.9235 H         1 UNK         0.0767 
    103 H103       26.9425   29.5067   -4.5231 H         1 UNK         0.0767 
    104 H104       28.6347   28.1798   -1.6754 H         1 UNK         0.3013 
    105 H105       29.9817   26.3113    3.5789 H         1 UNK         0.3121 
    106 H106       30.9426   28.2247    4.0221 H         1 UNK         0.0774 
    107 H107       30.7548   29.2844    6.1890 H         1 UNK         0.0815 
    108 H108       29.1422   28.6491    6.4613 H         1 UNK         0.0815 
    109 H109       30.5240   27.5656    6.4837 H         1 UNK         0.0815 
    110 H110       28.5400   28.1647    2.2824 H         1 UNK         0.2987 
    111 H111       27.2481   30.7585    2.5740 H         1 UNK         0.0949 
    112 H112       26.2149   30.1671    0.3635 H         1 UNK         0.0806 
    113 H113       27.2103   28.7200    0.2936 H         1 UNK         0.0806 
    114 H114       26.0025   28.9093    1.5659 H         1 UNK         0.0806 
    115 H115       30.1489   29.6018    0.9051 H         1 UNK         0.3010 
    116 H116       30.4674   32.2919   -0.3923 H         1 UNK         0.0829 
    117 H117       29.7473   30.6303   -2.0781 H         1 UNK         0.0813 
    118 H118       31.0774   29.5612   -1.6361 H         1 UNK         0.0813 
    119 H119       31.4032   31.1243   -2.3657 H         1 UNK         0.0813 
    120 H120       31.7409   30.4863    2.0523 H         1 UNK         0.3038 
    121 H121       34.2085   31.9709    1.9642 H         1 UNK         0.0769 
    122 H122       34.3040   28.8946    1.9823 H         1 UNK         0.0811 
    123 H123       35.6766   29.9504    2.2735 H         1 UNK         0.0811 
    124 H124       34.9259   29.9186    0.6875 H         1 UNK         0.0811 
    125 H125       35.2502   31.8720    4.0754 H         1 UNK         0.3204 
    126 H126       33.3281   31.7712    6.2477 H         1 UNK         0.0748 
    127 H127       35.1951   32.7654    7.5484 H         1 UNK         0.0771 
    128 H128       36.3073   32.4860    6.2150 H         1 UNK         0.0771 
    129 H129       34.9696   33.6216    6.0343 H         1 UNK         0.0771 
    130 H130       33.2540   29.2779    5.4942 H         1 UNK         0.2980 
    131 H131       35.1480   27.5452    6.8383 H         1 UNK         0.0545 
    132 H132       32.5293   29.3325    8.2163 H         1 UNK         0.3459 
    133 H133       32.3411   28.3194    9.6250 H         1 UNK         0.3459 
    134 H134       32.4578   26.8451    5.5608 H         1 UNK         0.0616 
    135 H135       33.6363   25.7047    6.1469 H         1 UNK         0.0616 
    136 H136       35.0709   24.5166    4.6901 H         1 UNK         0.0634 
    137 H137       35.4245   24.8964    3.0272 H         1 UNK         0.0634 
@<TRIPOS>BOND
     1    1    2 1    
     2    1   72 1    
     3    1   73 1    
     4    1   74 1    
     5    2    3 2    
     6    2    4 am   BACKBONE|DICT|INTERRES
     7    4    5 1    
     8    4   75 1    
     9    5    6 1    
    10    5   35 1    
    11    5   76 1    
    12    6    7 1    
    13    6   77 1    
    14    6   78 1    
    15    7    8 1    
    16    8    9 1    
    17    8   79 1    
    18    8   80 1    
    19    9   10 ar   
    20    9   14 ar   
    21   10   11 ar   
    22   10   81 1    
    23   11   12 ar   
    24   11   71 1    
    25   12   13 ar   
    26   12   82 1    
    27   13   14 ar   
    28   13   15 1    
    29   14   83 1    
    30   15   16 1    
    31   15   84 1    
    32   15   85 1    
    33   16   17 1    
    34   17   18 1    
    35   17   86 1    
    36   17   87 1    
    37   18   19 1    
    38   18   37 1    
    39   18   88 1    
    40   19   20 am   BACKBONE|DICT|INTERRES
    41   19   89 1    
    42   20   21 2    
    43   20   22 1    
    44   22   23 1    
    45   22   24 1    
    46   22   90 1    
    47   23   91 1    
    48   23   92 1    
    49   23   93 1    
    50   24   25 am   BACKBONE|DICT|INTERRES
    51   24   94 1    
    52   25   26 2    
    53   25   27 1    
    54   27   28 1    
    55   27   29 1    
    56   27   95 1    
    57   28   96 1    
    58   28   97 1    
    59   28   98 1    
    60   29   30 am   BACKBONE|DICT|INTERRES
    61   29   99 1    
    62   30   31 2    
    63   30   32 1    
    64   32   33 1    
    65   32   34 1    
    66   32  100 1    
    67   33  101 1    
    68   33  102 1    
    69   33  103 1    
    70   34   35 am   BACKBONE|DICT|INTERRES
    71   34  104 1    
    72   35   36 2    
    73   37   38 2    
    74   37   39 am   BACKBONE|DICT|INTERRES
    75   39   40 1    
    76   39  105 1    
    77   40   41 1    
    78   40   42 1    
    79   40  106 1    
    80   41  107 1    
    81   41  108 1    
    82   41  109 1    
    83   42   43 2    
    84   42   44 am   BACKBONE|DICT|INTERRES
    85   44   45 1    
    86   44  110 1    
    87   45   46 1    
    88   45   47 1    
    89   45  111 1    
    90   46  112 1    
    91   46  113 1    
    92   46  114 1    
    93   47   48 2    
    94   47   49 am   BACKBONE|DICT|INTERRES
    95   49   50 1    
    96   49  115 1    
    97   50   51 1    
    98   50   52 1    
    99   50  116 1    
   100   51  117 1    
   101   51  118 1    
   102   51  119 1    
   103   52   53 2    
   104   52   54 am   BACKBONE|DICT|INTERRES
   105   54   55 1    
   106   54  120 1    
   107   55   56 1    
   108   55   57 1    
   109   55  121 1    
   110   56  122 1    
   111   56  123 1    
   112   56  124 1    
   113   57   58 2    
   114   57   59 am   BACKBONE|DICT|INTERRES
   115   59   60 1    
   116   59  125 1    
   117   60   61 1    
   118   60   62 1    
   119   60  126 1    
   120   61  127 1    
   121   61  128 1    
   122   61  129 1    
   123   62   63 2    
   124   62   64 am   BACKBONE|DICT|INTERRES
   125   64   65 1    
   126   64  130 1    
   127   65   66 1    
   128   65   69 1    
   129   65  131 1    
   130   66   67 am   BACKBONE|DICT|INTERRES
   131   66   68 2    
   132   67  132 1    
   133   67  133 1    
   134   69   70 1    
   135   69  134 1    
   136   69  135 1    
   137   70   71 1    
   138   71  136 1    
   139   71  137 1    
@<TRIPOS>SUBSTRUCTURE
     1 UNK         1 GROUP             0       ****    0 ROOT    
