@<TRIPOS>MOLECULE
3R136
137   139    1
SMALL
USER_CHARGES


@<TRIPOS>ATOM
      1 CA         31.4965   22.9046   -3.7684 C.3       0 UNK        -0.1979 
      2 C          30.4341   23.3303   -2.7664 C.2       0 UNK         0.4864 
      3 O          29.9923   22.5081   -1.9625 O.2       0 UNK        -0.5359 
      4 N          30.0136   24.6027   -2.8206 N.am      1 UNK        -0.4318 
      5 CA         29.0424   25.2903   -1.9494 C.3       1 UNK         0.0824 
      6 C6         29.4078   25.2814   -0.4410 C.3       12 UNK        -0.0944 
      7 S7         31.1067   25.8343   -0.0691 S.3       12 UNK        -0.2672 
      8 C8         31.7837   24.3583    0.7619 C.3       12 UNK         0.0333 
      9 C9         31.4498   24.3395    2.2487 C.ar      12 UNK        -0.0807 
     10 C10        32.3854   24.8072    3.1772 C.ar      12 UNK        -0.0894 
     11 C11        32.0937   24.8068    4.5440 C.ar      12 UNK        -0.0804 
     12 C12        30.8540   24.3334    4.9812 C.ar      12 UNK        -0.0824 
     13 C13        29.9081   23.8626    4.0661 C.ar      12 UNK        -0.0762 
     14 C14        30.2186   23.8512    2.7025 C.ar      12 UNK        -0.0782 
     15 C15        28.5551   23.3651    4.5621 C.3       12 UNK         0.0230 
     16 S16        27.1456   24.3248    3.9100 S.3       12 UNK        -0.2608 
     17 C17        27.6035   26.0530    4.2909 C.3       12 UNK        -0.0989 
     18 CA         27.7821   26.8742    2.9912 C.3       5 UNK         0.0716 
     19 N          26.5196   26.9674    2.2364 N.am      5 UNK        -0.4135 
     20 C          26.3470   27.5447    1.0397 C.2       4 UNK         0.5031 
     21 O          27.2492   28.1113    0.4243 O.2       4 UNK        -0.5229 
     22 CA         24.9250   27.5050    0.4552 C.3       4 UNK         0.0329 
     23 CB         24.7911   28.3376   -0.8340 C.3       4 UNK        -0.2001 
     24 N          24.5020   26.1319    0.1831 N.am      4 UNK        -0.4303 
     25 C          23.9689   25.2984    1.0874 C.2       3 UNK         0.5044 
     26 O          23.8109   25.6005    2.2713 O.2       3 UNK        -0.5152 
     27 CA         23.5287   23.9039    0.6015 C.3       3 UNK         0.0319 
     28 CB         22.0107   23.8767    0.3612 C.3       3 UNK        -0.2001 
     29 N          24.2142   23.4743   -0.6204 N.am      3 UNK        -0.4354 
     30 C          25.4885   23.0647   -0.6605 C.2       2 UNK         0.4964 
     31 O          26.1895   22.9278    0.3436 O.2       2 UNK        -0.5047 
     32 CA         26.1063   22.7747   -2.0427 C.3       2 UNK         0.0288 
     33 CB         25.1770   23.0619   -3.2460 C.3       2 UNK        -0.2113 
     34 N          27.3827   23.4833   -2.1716 N.am      2 UNK        -0.4145 
     35 C          27.5848   24.8078   -2.1180 C.2       1 UNK         0.5006 
     36 O          26.6763   25.6389   -2.1553 O.2       1 UNK        -0.5103 
     37 C          28.4518   28.2389    3.2762 C.2       5 UNK         0.5055 
     38 O          29.6676   28.2876    3.4636 O.2       5 UNK        -0.5220 
     39 N          27.6720   29.3311    3.2434 N.am      6 UNK        -0.4450 
     40 CA         28.1467   30.7176    3.2848 C.3       6 UNK         0.0367 
     41 CB         26.9361   31.6642    3.3122 C.3       6 UNK        -0.1929 
     42 C          29.0949   31.0960    2.1277 C.2       6 UNK         0.5070 
     43 O          29.8991   32.0135    2.2971 O.2       6 UNK        -0.5237 
     44 N          29.0347   30.3684    0.9988 N.am      7 UNK        -0.4739 
     45 CA         29.9267   30.5166   -0.1600 C.3       7 UNK         0.0276 
     46 CB         29.4545   29.5873   -1.2900 C.3       7 UNK        -0.1927 
     47 C          31.4156   30.2630    0.1469 C.2       7 UNK         0.5013 
     48 O          32.2677   30.7000   -0.6275 O.2       7 UNK        -0.5193 
     49 N          31.7085   29.6026    1.2771 N.am      8 UNK        -0.4253 
     50 CA         33.0540   29.4396    1.8291 C.3       8 UNK         0.0242 
     51 CB         32.9963   28.4033    2.9600 C.3       8 UNK        -0.2000 
     52 C          33.6777   30.7514    2.3465 C.2       8 UNK         0.4948 
     53 O          34.8935   30.7827    2.5383 O.2       8 UNK        -0.5275 
     54 N          32.8530   31.7913    2.5697 N.am      9 UNK        -0.4246 
     55 CA         33.2115   33.1168    3.0909 C.3       9 UNK         0.0261 
     56 CB         34.1029   33.8817    2.0884 C.3       9 UNK        -0.1959 
     57 C          33.8116   33.0375    4.5082 C.2       9 UNK         0.5033 
     58 O          34.8864   33.5885    4.7541 O.2       9 UNK        -0.5390 
     59 N          33.0806   32.3426    5.3942 N.am      10 UNK        -0.4215 
     60 CA         33.4217   31.9459    6.7655 C.3       10 UNK         0.0240 
     61 CB         33.8259   33.1439    7.6504 C.3       10 UNK        -0.1982 
     62 C          34.4780   30.8276    6.7725 C.2       10 UNK         0.4970 
     63 O          35.6512   31.0786    6.4925 O.2       10 UNK        -0.4916 
     64 N          34.0238   29.6082    7.0844 N.am      11 UNK        -0.4279 
     65 CA         34.8296   28.3810    7.1763 C.3       11 UNK         0.1003 
     66 C          35.9913   28.4841    8.2042 C.2       11 UNK         0.5709 
     67 N          37.1447   27.9046    7.9000 N.am      11 UNK        -0.7358 
     68 O          35.8389   29.0419    9.2898 O.2       11 UNK        -0.4999 
     69 C69        33.9374   27.1559    7.5060 C.3       12 UNK        -0.0954 
     70 S70        32.6088   26.8915    6.2838 S.3       12 UNK        -0.2268 
     71 C71        33.1154   25.3051    5.5547 C.3       12 UNK         0.0203 
     72 H72        31.1257   22.0856   -4.3836 H         1 UNK         0.0888 
     73 H73        31.7863   23.7212   -4.4292 H         1 UNK         0.0888 
     74 H74        32.3872   22.5610   -3.2439 H         1 UNK         0.0888 
     75 H75        30.4131   25.1983   -3.5326 H         1 UNK         0.3017 
     76 H76        29.0546   26.3313   -2.2766 H         1 UNK         0.0873 
     77 H77        28.7300   25.9361    0.1050 H         1 UNK         0.0745 
     78 H78        29.2491   24.2847   -0.0308 H         1 UNK         0.0745 
     79 H79        31.4202   23.4499    0.2794 H         1 UNK         0.0705 
     80 H80        32.8660   24.3543    0.6246 H         1 UNK         0.0705 
     81 H81        33.3418   25.1771    2.8340 H         1 UNK         0.1334 
     82 H82        30.6268   24.3413    6.0386 H         1 UNK         0.1417 
     83 H83        29.4881   23.4746    2.0012 H         1 UNK         0.1562 
     84 H84        28.5113   23.3850    5.6523 H         1 UNK         0.0748 
     85 H85        28.4327   22.3208    4.2717 H         1 UNK         0.0748 
     86 H86        28.5158   26.0661    4.8901 H         1 UNK         0.0940 
     87 H87        26.8270   26.4912    4.9205 H         1 UNK         0.0940 
     88 H88        28.4878   26.3355    2.3569 H         1 UNK         0.0703 
     89 H89        25.7227   26.4886    2.6417 H         1 UNK         0.3081 
     90 H90        24.2565   27.9462    1.1976 H         1 UNK         0.0719 
     91 H91        25.4379   27.9628   -1.6280 H         1 UNK         0.0809 
     92 H92        23.7665   28.3327   -1.2057 H         1 UNK         0.0809 
     93 H93        25.0660   29.3782   -0.6565 H         1 UNK         0.0809 
     94 H94        24.6850   25.7863   -0.7495 H         1 UNK         0.2990 
     95 H95        23.7595   23.1927    1.3978 H         1 UNK         0.0690 
     96 H96        21.6704   22.8789    0.0839 H         1 UNK         0.0788 
     97 H97        21.7135   24.5663   -0.4299 H         1 UNK         0.0788 
     98 H98        21.4683   24.1628    1.2636 H         1 UNK         0.0788 
     99 H99        23.7042   23.5573   -1.4883 H         1 UNK         0.2993 
    100 H100       26.3432   21.7097   -2.0516 H         1 UNK         0.0949 
    101 H101       24.8536   24.1025   -3.2865 H         1 UNK         0.0767 
    102 H102       25.6823   22.8411   -4.1863 H         1 UNK         0.0767 
    103 H103       24.2843   22.4359   -3.2137 H         1 UNK         0.0767 
    104 H104       28.2195   22.9075   -2.0862 H         1 UNK         0.3013 
    105 H105       26.6844   29.1987    3.0838 H         1 UNK         0.3121 
    106 H106       28.7054   30.8452    4.2144 H         1 UNK         0.0774 
    107 H107       26.3243   31.5634    2.4147 H         1 UNK         0.0815 
    108 H108       27.2569   32.7053    3.3718 H         1 UNK         0.0815 
    109 H109       26.3008   31.4743    4.1777 H         1 UNK         0.0815 
    110 H110       28.3542   29.6144    0.9354 H         1 UNK         0.2987 
    111 H111       29.8428   31.5490   -0.5061 H         1 UNK         0.0949 
    112 H112       29.5273   28.5383   -0.9998 H         1 UNK         0.0806 
    113 H113       28.4186   29.7876   -1.5650 H         1 UNK         0.0806 
    114 H114       30.0605   29.7201   -2.1874 H         1 UNK         0.0806 
    115 H115       30.9435   29.2551    1.8442 H         1 UNK         0.3010 
    116 H116       33.6990   29.0537    1.0369 H         1 UNK         0.0829 
    117 H117       33.9938   28.1627    3.3301 H         1 UNK         0.0813 
    118 H118       32.4111   28.7637    3.8070 H         1 UNK         0.0813 
    119 H119       32.5396   27.4771    2.6157 H         1 UNK         0.0813 
    120 H120       31.8629   31.6652    2.3774 H         1 UNK         0.3038 
    121 H121       32.2763   33.6719    3.1830 H         1 UNK         0.0769 
    122 H122       35.0796   33.4114    1.9704 H         1 UNK         0.0811 
    123 H123       34.2749   34.9052    2.4233 H         1 UNK         0.0811 
    124 H124       33.6361   33.9361    1.1049 H         1 UNK         0.0811 
    125 H125       32.2208   31.9429    5.0445 H         1 UNK         0.3204 
    126 H126       32.5003   31.5433    7.1898 H         1 UNK         0.0748 
    127 H127       33.9355   32.8335    8.6902 H         1 UNK         0.0771 
    128 H128       34.7778   33.5800    7.3467 H         1 UNK         0.0771 
    129 H129       33.0719   33.9306    7.6233 H         1 UNK         0.0771 
    130 H130       33.0461   29.4922    7.3036 H         1 UNK         0.2980 
    131 H131       35.2698   28.2242    6.1895 H         1 UNK         0.0545 
    132 H132       37.2765   27.4335    7.0187 H         1 UNK         0.3459 
    133 H133       37.9033   27.9476    8.5624 H         1 UNK         0.3459 
    134 H134       33.4706   27.2774    8.4854 H         1 UNK         0.0616 
    135 H135       34.5449   26.2514    7.5739 H         1 UNK         0.0616 
    136 H136       34.0956   25.4223    5.0904 H         1 UNK         0.0634 
    137 H137       33.2294   24.5622    6.3452 H         1 UNK         0.0634 
@<TRIPOS>BOND
     1    1    2 1    
     2    1   72 1    
     3    1   73 1    
     4    1   74 1    
     5    2    3 2    
     6    2    4 am   BACKBONE|DICT|INTERRES
     7    4    5 1    
     8    4   75 1    
     9    5    6 1    
    10    5   35 1    
    11    5   76 1    
    12    6    7 1    
    13    6   77 1    
    14    6   78 1    
    15    7    8 1    
    16    8    9 1    
    17    8   79 1    
    18    8   80 1    
    19    9   10 ar   
    20    9   14 ar   
    21   10   11 ar   
    22   10   81 1    
    23   11   12 ar   
    24   11   71 1    
    25   12   13 ar   
    26   12   82 1    
    27   13   14 ar   
    28   13   15 1    
    29   14   83 1    
    30   15   16 1    
    31   15   84 1    
    32   15   85 1    
    33   16   17 1    
    34   17   18 1    
    35   17   86 1    
    36   17   87 1    
    37   18   19 1    
    38   18   37 1    
    39   18   88 1    
    40   19   20 am   BACKBONE|DICT|INTERRES
    41   19   89 1    
    42   20   21 2    
    43   20   22 1    
    44   22   23 1    
    45   22   24 1    
    46   22   90 1    
    47   23   91 1    
    48   23   92 1    
    49   23   93 1    
    50   24   25 am   BACKBONE|DICT|INTERRES
    51   24   94 1    
    52   25   26 2    
    53   25   27 1    
    54   27   28 1    
    55   27   29 1    
    56   27   95 1    
    57   28   96 1    
    58   28   97 1    
    59   28   98 1    
    60   29   30 am   BACKBONE|DICT|INTERRES
    61   29   99 1    
    62   30   31 2    
    63   30   32 1    
    64   32   33 1    
    65   32   34 1    
    66   32  100 1    
    67   33  101 1    
    68   33  102 1    
    69   33  103 1    
    70   34   35 am   BACKBONE|DICT|INTERRES
    71   34  104 1    
    72   35   36 2    
    73   37   38 2    
    74   37   39 am   BACKBONE|DICT|INTERRES
    75   39   40 1    
    76   39  105 1    
    77   40   41 1    
    78   40   42 1    
    79   40  106 1    
    80   41  107 1    
    81   41  108 1    
    82   41  109 1    
    83   42   43 2    
    84   42   44 am   BACKBONE|DICT|INTERRES
    85   44   45 1    
    86   44  110 1    
    87   45   46 1    
    88   45   47 1    
    89   45  111 1    
    90   46  112 1    
    91   46  113 1    
    92   46  114 1    
    93   47   48 2    
    94   47   49 am   BACKBONE|DICT|INTERRES
    95   49   50 1    
    96   49  115 1    
    97   50   51 1    
    98   50   52 1    
    99   50  116 1    
   100   51  117 1    
   101   51  118 1    
   102   51  119 1    
   103   52   53 2    
   104   52   54 am   BACKBONE|DICT|INTERRES
   105   54   55 1    
   106   54  120 1    
   107   55   56 1    
   108   55   57 1    
   109   55  121 1    
   110   56  122 1    
   111   56  123 1    
   112   56  124 1    
   113   57   58 2    
   114   57   59 am   BACKBONE|DICT|INTERRES
   115   59   60 1    
   116   59  125 1    
   117   60   61 1    
   118   60   62 1    
   119   60  126 1    
   120   61  127 1    
   121   61  128 1    
   122   61  129 1    
   123   62   63 2    
   124   62   64 am   BACKBONE|DICT|INTERRES
   125   64   65 1    
   126   64  130 1    
   127   65   66 1    
   128   65   69 1    
   129   65  131 1    
   130   66   67 am   BACKBONE|DICT|INTERRES
   131   66   68 2    
   132   67  132 1    
   133   67  133 1    
   134   69   70 1    
   135   69  134 1    
   136   69  135 1    
   137   70   71 1    
   138   71  136 1    
   139   71  137 1    
@<TRIPOS>SUBSTRUCTURE
     1 UNK         1 GROUP             0       ****    0 ROOT    
