@<TRIPOS>MOLECULE
3R136
137   139    1
SMALL
USER_CHARGES


@<TRIPOS>ATOM
      1 CA         27.1220   22.2328    0.4821 C.3       0 UNK        -0.1979 
      2 C          28.3983   23.0249    0.2469 C.2       0 UNK         0.4864 
      3 O          28.5020   24.1722    0.6876 O.2       0 UNK        -0.5359 
      4 N          29.3525   22.4143   -0.4702 N.am      1 UNK        -0.4318 
      5 CA         30.6664   22.9637   -0.8398 C.3       1 UNK         0.0824 
      6 C6         31.5731   23.2578    0.3928 C.3       12 UNK        -0.0944 
      7 S7         31.7791   21.7922    1.4631 S.3       12 UNK        -0.2672 
      8 C8         32.3211   22.5357    3.0359 C.3       12 UNK         0.0333 
      9 C9         31.2626   23.4339    3.6632 C.ar      12 UNK        -0.0807 
     10 C10        31.4898   24.8093    3.7728 C.ar      12 UNK        -0.0894 
     11 C11        30.5280   25.6407    4.3505 C.ar      12 UNK        -0.0804 
     12 C12        29.3553   25.0839    4.8641 C.ar      12 UNK        -0.0824 
     13 C13        29.0867   23.7230    4.7074 C.ar      12 UNK        -0.0762 
     14 C14        30.0532   22.8976    4.1216 C.ar      12 UNK        -0.0782 
     15 C15        27.7386   23.1571    5.1334 C.3       12 UNK         0.0230 
     16 S16        26.5092   23.2695    3.7851 S.3       12 UNK        -0.2608 
     17 C17        25.7334   24.9049    4.0447 C.3       12 UNK        -0.0989 
     18 CA         26.4014   26.0592    3.2458 C.3       5 UNK         0.0716 
     19 N          26.4408   25.8547    1.7979 N.am      5 UNK        -0.4135 
     20 C          25.4712   26.0497    0.8972 C.2       4 UNK         0.5031 
     21 O          24.3069   26.3348    1.1823 O.2       4 UNK        -0.5229 
     22 CA         25.9222   25.9568   -0.5789 C.3       4 UNK         0.0329 
     23 CB         24.9155   26.5939   -1.5601 C.3       4 UNK        -0.2001 
     24 N          27.2786   26.5001   -0.7815 N.am      4 UNK        -0.4303 
     25 C          27.6804   27.7550   -0.5062 C.2       3 UNK         0.5044 
     26 O          26.9168   28.6457   -0.1369 O.2       3 UNK        -0.5152 
     27 CA         29.1805   28.0745   -0.5872 C.3       3 UNK         0.0319 
     28 CB         29.7960   27.9797    0.8235 C.3       3 UNK        -0.2001 
     29 N          29.8843   27.1931   -1.5169 N.am      3 UNK        -0.4354 
     30 C          31.1530   27.3106   -1.9214 C.2       2 UNK         0.4964 
     31 O          31.8935   28.2409   -1.6030 O.2       2 UNK        -0.5047 
     32 CA         31.6913   26.1494   -2.7830 C.3       2 UNK         0.0288 
     33 CB         33.1291   26.3918   -3.2807 C.3       2 UNK        -0.2113 
     34 N          31.6481   24.8840   -2.0406 N.am      2 UNK        -0.4145 
     35 C          30.5352   24.1783   -1.7910 C.2       1 UNK         0.5006 
     36 O          29.4392   24.4788   -2.2793 O.2       1 UNK        -0.5103 
     37 C          25.9488   27.4674    3.7078 C.2       5 UNK         0.5055 
     38 O          25.4621   27.6029    4.8328 O.2       5 UNK        -0.5220 
     39 N          26.1668   28.5087    2.8888 N.am      6 UNK        -0.4450 
     40 CA         26.1442   29.9035    3.3439 C.3       6 UNK         0.0367 
     41 CB         26.0180   30.8399    2.1325 C.3       6 UNK        -0.1929 
     42 C          27.4387   30.2036    4.1174 C.2       6 UNK         0.5070 
     43 O          28.4834   29.6586    3.7667 O.2       6 UNK        -0.5237 
     44 N          27.3734   31.0649    5.1389 N.am      7 UNK        -0.4739 
     45 CA         28.5060   31.4041    6.0116 C.3       7 UNK         0.0276 
     46 CB         27.9572   31.9554    7.3412 C.3       7 UNK        -0.1927 
     47 C          29.5131   32.3639    5.3414 C.2       7 UNK         0.5013 
     48 O          29.6925   33.4911    5.8069 O.2       7 UNK        -0.5193 
     49 N          30.1355   31.9091    4.2504 N.am      8 UNK        -0.4253 
     50 CA         31.1049   32.6322    3.4333 C.3       8 UNK         0.0242 
     51 CB         30.3775   33.6908    2.5772 C.3       8 UNK        -0.2000 
     52 C          31.8660   31.6338    2.5485 C.2       8 UNK         0.4948 
     53 O          31.5426   30.4431    2.5455 O.2       8 UNK        -0.5275 
     54 N          32.8448   32.1516    1.7910 N.am      9 UNK        -0.4246 
     55 CA         33.6322   31.4676    0.7586 C.3       9 UNK         0.0261 
     56 CB         32.7504   31.1542   -0.4692 C.3       9 UNK        -0.1959 
     57 C          34.3959   30.2452    1.3002 C.2       9 UNK         0.5033 
     58 O          35.4926   30.4160    1.8339 O.2       9 UNK        -0.5390 
     59 N          33.8141   29.0463    1.1588 N.am      10 UNK        -0.4215 
     60 CA         34.3647   27.7719    1.6293 C.3       10 UNK         0.0240 
     61 CB         33.5331   26.6155    1.0475 C.3       10 UNK        -0.1982 
     62 C          34.4821   27.6378    3.1614 C.2       10 UNK         0.4970 
     63 O          35.1829   26.7322    3.6153 O.2       10 UNK        -0.4916 
     64 N          33.8137   28.5060    3.9298 N.am      11 UNK        -0.4279 
     65 CA         33.8605   28.5325    5.3970 C.3       11 UNK         0.1003 
     66 C          33.7116   29.9738    5.9600 C.2       11 UNK         0.5709 
     67 N          33.6857   30.1325    7.2787 N.am      11 UNK        -0.7358 
     68 O          33.6486   30.9560    5.2208 O.2       11 UNK        -0.4999 
     69 C69        32.9214   27.4673    6.0386 C.3       12 UNK        -0.0954 
     70 S70        31.1410   27.8554    5.9395 S.3       12 UNK        -0.2268 
     71 C71        30.6944   27.1500    4.3263 C.3       12 UNK         0.0203 
     72 H72        26.8660   21.6264   -0.3863 H         1 UNK         0.0888 
     73 H73        27.2461   21.5731    1.3402 H         1 UNK         0.0888 
     74 H74        26.2853   22.8998    0.6857 H         1 UNK         0.0888 
     75 H75        29.1734   21.4828   -0.8163 H         1 UNK         0.3017 
     76 H76        31.1544   22.1868   -1.4302 H         1 UNK         0.0873 
     77 H77        32.5728   23.5691    0.0876 H         1 UNK         0.0745 
     78 H78        31.1598   24.0815    0.9769 H         1 UNK         0.0745 
     79 H79        32.5651   21.7356    3.7358 H         1 UNK         0.0705 
     80 H80        33.2483   23.0854    2.8659 H         1 UNK         0.0705 
     81 H81        32.4050   25.2364    3.3884 H         1 UNK         0.1334 
     82 H82        28.6206   25.7268    5.3286 H         1 UNK         0.1417 
     83 H83        29.8580   21.8407    4.0010 H         1 UNK         0.1562 
     84 H84        27.3729   23.6643    6.0272 H         1 UNK         0.0748 
     85 H85        27.8543   22.1081    5.4099 H         1 UNK         0.0748 
     86 H86        25.7436   25.1087    5.1166 H         1 UNK         0.0940 
     87 H87        24.6806   24.8304    3.7681 H         1 UNK         0.0940 
     88 H88        27.4550   26.0588    3.4965 H         1 UNK         0.0703 
     89 H89        27.3297   25.5077    1.4430 H         1 UNK         0.3081 
     90 H90        25.9805   24.8937   -0.8146 H         1 UNK         0.0719 
     91 H91        24.7522   27.6506   -1.3464 H         1 UNK         0.0809 
     92 H92        25.2588   26.5086   -2.5909 H         1 UNK         0.0809 
     93 H93        23.9459   26.0983   -1.4997 H         1 UNK         0.0809 
     94 H94        27.9812   25.7971   -0.9755 H         1 UNK         0.2990 
     95 H95        29.2784   29.1001   -0.9486 H         1 UNK         0.0690 
     96 H96        30.8187   28.3511    0.8444 H         1 UNK         0.0788 
     97 H97        29.7999   26.9542    1.1960 H         1 UNK         0.0788 
     98 H98        29.2350   28.5851    1.5350 H         1 UNK         0.0788 
     99 H99        29.3761   26.3832   -1.8566 H         1 UNK         0.2993 
    100 H100       31.0459   26.0694   -3.6606 H         1 UNK         0.0949 
    101 H101       33.1909   27.3164   -3.8562 H         1 UNK         0.0767 
    102 H102       33.8381   26.4741   -2.4566 H         1 UNK         0.0767 
    103 H103       33.4642   25.5844   -3.9319 H         1 UNK         0.0767 
    104 H104       32.5146   24.5891   -1.6155 H         1 UNK         0.3013 
    105 H105       26.5630   28.3475    1.9703 H         1 UNK         0.3121 
    106 H106       25.2837   30.0567    3.9988 H         1 UNK         0.0774 
    107 H107       25.9149   31.8777    2.4513 H         1 UNK         0.0815 
    108 H108       26.8964   30.7850    1.4878 H         1 UNK         0.0815 
    109 H109       25.1441   30.5950    1.5288 H         1 UNK         0.0815 
    110 H110       26.4917   31.5111    5.3487 H         1 UNK         0.2987 
    111 H111       29.0534   30.4860    6.2403 H         1 UNK         0.0949 
    112 H112       28.7688   32.1890    8.0316 H         1 UNK         0.0806 
    113 H113       27.3810   32.8696    7.1934 H         1 UNK         0.0806 
    114 H114       27.3139   31.2284    7.8371 H         1 UNK         0.0806 
    115 H115       29.9281   30.9646    3.9263 H         1 UNK         0.3010 
    116 H116       31.8269   33.1169    4.0932 H         1 UNK         0.0829 
    117 H117       29.8386   34.4074    3.1968 H         1 UNK         0.0813 
    118 H118       31.0760   34.2646    1.9680 H         1 UNK         0.0813 
    119 H119       29.6573   33.2287    1.9012 H         1 UNK         0.0813 
    120 H120       33.0620   33.1307    1.9123 H         1 UNK         0.3038 
    121 H121       34.3940   32.1776    0.4325 H         1 UNK         0.0769 
    122 H122       31.8785   30.5517   -0.2131 H         1 UNK         0.0811 
    123 H123       33.3130   30.6142   -1.2321 H         1 UNK         0.0811 
    124 H124       32.3857   32.0714   -0.9311 H         1 UNK         0.0811 
    125 H125       32.9064   29.0148    0.7144 H         1 UNK         0.3204 
    126 H126       35.3779   27.6900    1.2307 H         1 UNK         0.0748 
    127 H127       33.5524   26.6284   -0.0411 H         1 UNK         0.0771 
    128 H128       33.9282   25.6487    1.3623 H         1 UNK         0.0771 
    129 H129       32.4918   26.6626    1.3655 H         1 UNK         0.0771 
    130 H130       33.2685   29.2455    3.5009 H         1 UNK         0.2980 
    131 H131       34.8806   28.2614    5.6753 H         1 UNK         0.0545 
    132 H132       33.7359   29.3416    7.9033 H         1 UNK         0.3459 
    133 H133       33.6012   31.0633    7.6552 H         1 UNK         0.3459 
    134 H134       33.0999   26.4873    5.5950 H         1 UNK         0.0616 
    135 H135       33.1686   27.3478    7.0940 H         1 UNK         0.0616 
    136 H136       29.7459   27.5796    4.0148 H         1 UNK         0.0634 
    137 H137       31.4113   27.4538    3.5654 H         1 UNK         0.0634 
@<TRIPOS>BOND
     1    1    2 1    
     2    1   72 1    
     3    1   73 1    
     4    1   74 1    
     5    2    3 2    
     6    2    4 am   BACKBONE|DICT|INTERRES
     7    4    5 1    
     8    4   75 1    
     9    5    6 1    
    10    5   35 1    
    11    5   76 1    
    12    6    7 1    
    13    6   77 1    
    14    6   78 1    
    15    7    8 1    
    16    8    9 1    
    17    8   79 1    
    18    8   80 1    
    19    9   10 ar   
    20    9   14 ar   
    21   10   11 ar   
    22   10   81 1    
    23   11   12 ar   
    24   11   71 1    
    25   12   13 ar   
    26   12   82 1    
    27   13   14 ar   
    28   13   15 1    
    29   14   83 1    
    30   15   16 1    
    31   15   84 1    
    32   15   85 1    
    33   16   17 1    
    34   17   18 1    
    35   17   86 1    
    36   17   87 1    
    37   18   19 1    
    38   18   37 1    
    39   18   88 1    
    40   19   20 am   BACKBONE|DICT|INTERRES
    41   19   89 1    
    42   20   21 2    
    43   20   22 1    
    44   22   23 1    
    45   22   24 1    
    46   22   90 1    
    47   23   91 1    
    48   23   92 1    
    49   23   93 1    
    50   24   25 am   BACKBONE|DICT|INTERRES
    51   24   94 1    
    52   25   26 2    
    53   25   27 1    
    54   27   28 1    
    55   27   29 1    
    56   27   95 1    
    57   28   96 1    
    58   28   97 1    
    59   28   98 1    
    60   29   30 am   BACKBONE|DICT|INTERRES
    61   29   99 1    
    62   30   31 2    
    63   30   32 1    
    64   32   33 1    
    65   32   34 1    
    66   32  100 1    
    67   33  101 1    
    68   33  102 1    
    69   33  103 1    
    70   34   35 am   BACKBONE|DICT|INTERRES
    71   34  104 1    
    72   35   36 2    
    73   37   38 2    
    74   37   39 am   BACKBONE|DICT|INTERRES
    75   39   40 1    
    76   39  105 1    
    77   40   41 1    
    78   40   42 1    
    79   40  106 1    
    80   41  107 1    
    81   41  108 1    
    82   41  109 1    
    83   42   43 2    
    84   42   44 am   BACKBONE|DICT|INTERRES
    85   44   45 1    
    86   44  110 1    
    87   45   46 1    
    88   45   47 1    
    89   45  111 1    
    90   46  112 1    
    91   46  113 1    
    92   46  114 1    
    93   47   48 2    
    94   47   49 am   BACKBONE|DICT|INTERRES
    95   49   50 1    
    96   49  115 1    
    97   50   51 1    
    98   50   52 1    
    99   50  116 1    
   100   51  117 1    
   101   51  118 1    
   102   51  119 1    
   103   52   53 2    
   104   52   54 am   BACKBONE|DICT|INTERRES
   105   54   55 1    
   106   54  120 1    
   107   55   56 1    
   108   55   57 1    
   109   55  121 1    
   110   56  122 1    
   111   56  123 1    
   112   56  124 1    
   113   57   58 2    
   114   57   59 am   BACKBONE|DICT|INTERRES
   115   59   60 1    
   116   59  125 1    
   117   60   61 1    
   118   60   62 1    
   119   60  126 1    
   120   61  127 1    
   121   61  128 1    
   122   61  129 1    
   123   62   63 2    
   124   62   64 am   BACKBONE|DICT|INTERRES
   125   64   65 1    
   126   64  130 1    
   127   65   66 1    
   128   65   69 1    
   129   65  131 1    
   130   66   67 am   BACKBONE|DICT|INTERRES
   131   66   68 2    
   132   67  132 1    
   133   67  133 1    
   134   69   70 1    
   135   69  134 1    
   136   69  135 1    
   137   70   71 1    
   138   71  136 1    
   139   71  137 1    
@<TRIPOS>SUBSTRUCTURE
     1 UNK         1 GROUP             0       ****    0 ROOT    
