@<TRIPOS>MOLECULE
3R136
137   139    1
SMALL
USER_CHARGES


@<TRIPOS>ATOM
      1 CA         29.2880   23.8380   -4.4584 C.3       0 UNK        -0.1979 
      2 C          29.9832   23.7425   -3.1086 C.2       0 UNK         0.4864 
      3 O          31.1500   24.1187   -2.9929 O.2       0 UNK        -0.5359 
      4 N          29.2738   23.2472   -2.0893 N.am      1 UNK        -0.4318 
      5 CA         29.7297   23.1452   -0.7057 C.3       1 UNK         0.0824 
      6 C6         30.7374   21.9783   -0.5086 C.3       12 UNK        -0.0944 
      7 S7         31.6681   21.9976    1.0640 S.3       12 UNK        -0.2672 
      8 C8         32.8245   23.3947    0.8516 C.3       12 UNK         0.0333 
      9 C9         32.2124   24.7112    1.3149 C.ar      12 UNK        -0.0807 
     10 C10        31.8204   24.8686    2.6478 C.ar      12 UNK        -0.0894 
     11 C11        31.2115   26.0507    3.0773 C.ar      12 UNK        -0.0804 
     12 C12        31.0023   27.0878    2.1647 C.ar      12 UNK        -0.0824 
     13 C13        31.4057   26.9503    0.8319 C.ar      12 UNK        -0.0762 
     14 C14        32.0267   25.7673    0.4171 C.ar      12 UNK        -0.0782 
     15 C15        31.1380   28.0722   -0.1632 C.3       12 UNK         0.0230 
     16 S16        30.1131   27.5617   -1.5811 S.3       12 UNK        -0.2608 
     17 C17        28.7139   26.7157   -0.7811 C.3       12 UNK        -0.0989 
     18 CA         27.3903   27.5061   -0.8096 C.3       5 UNK         0.0716 
     19 N          26.2717   26.5778   -0.6488 N.am      5 UNK        -0.4135 
     20 C          25.0872   26.6552   -1.2646 C.2       4 UNK         0.5031 
     21 O          24.7938   27.5176   -2.0930 O.2       4 UNK        -0.5229 
     22 CA         24.0528   25.5734   -0.8978 C.3       4 UNK         0.0329 
     23 CB         24.1274   24.4041   -1.8931 C.3       4 UNK        -0.2001 
     24 N          24.2250   25.0567    0.4641 N.am      4 UNK        -0.4303 
     25 C          23.9564   25.7561    1.5762 C.2       3 UNK         0.5044 
     26 O          23.4432   26.8747    1.5696 O.2       3 UNK        -0.5152 
     27 CA         24.3416   25.1217    2.9263 C.3       3 UNK         0.0319 
     28 CB         23.1109   24.4757    3.5826 C.3       3 UNK        -0.2001 
     29 N          25.4287   24.1351    2.8712 N.am      3 UNK        -0.4354 
     30 C          26.6778   24.3632    2.4411 C.2       2 UNK         0.4964 
     31 O          27.0404   25.4368    1.9555 O.2       2 UNK        -0.5047 
     32 CA         27.6972   23.2152    2.5853 C.3       2 UNK         0.0288 
     33 CB         27.0537   21.8158    2.7212 C.3       2 UNK        -0.2113 
     34 N          28.6993   23.2200    1.5138 N.am      2 UNK        -0.4145 
     35 C          28.4848   23.0724    0.1995 C.2       1 UNK         0.5006 
     36 O          27.3687   22.9085   -0.3060 O.2       1 UNK        -0.5103 
     37 C          27.3305   28.5982    0.2790 C.2       5 UNK         0.5055 
     38 O          27.5446   29.7737   -0.0195 O.2       5 UNK        -0.5220 
     39 N          26.9839   28.1876    1.5077 N.am      6 UNK        -0.4450 
     40 CA         26.6452   28.9758    2.6958 C.3       6 UNK         0.0367 
     41 CB         25.4667   29.9329    2.4299 C.3       6 UNK        -0.1929 
     42 C          27.8192   29.7099    3.3610 C.2       6 UNK         0.5070 
     43 O          27.9823   29.5715    4.5730 O.2       6 UNK        -0.5237 
     44 N          28.5985   30.4836    2.5974 N.am      7 UNK        -0.4739 
     45 CA         29.6677   31.3355    3.1192 C.3       7 UNK         0.0276 
     46 CB         29.1088   32.7328    3.4380 C.3       7 UNK        -0.1927 
     47 C          30.8290   31.4248    2.1259 C.2       7 UNK         0.5013 
     48 O          30.5984   31.4659    0.9166 O.2       7 UNK        -0.5193 
     49 N          32.0455   31.4850    2.6752 N.am      8 UNK        -0.4253 
     50 CA         33.3485   31.5825    2.0192 C.3       8 UNK         0.0242 
     51 CB         33.5941   30.4035    1.0503 C.3       8 UNK        -0.2000 
     52 C          34.3924   31.6652    3.1464 C.2       8 UNK         0.4948 
     53 O          34.0565   32.1360    4.2375 O.2       8 UNK        -0.5275 
     54 N          35.6215   31.1895    2.9018 N.am      9 UNK        -0.4246 
     55 CA         36.6713   31.0435    3.9153 C.3       9 UNK         0.0261 
     56 CB         37.9519   30.5086    3.2545 C.3       9 UNK        -0.1959 
     57 C          36.2150   30.1127    5.0533 C.2       9 UNK         0.5033 
     58 O          35.7041   29.0255    4.7740 O.2       9 UNK        -0.5390 
     59 N          36.3583   30.5811    6.3002 N.am      10 UNK        -0.4215 
     60 CA         35.8920   29.9864    7.5636 C.3       10 UNK         0.0240 
     61 CB         36.5116   28.5961    7.8098 C.3       10 UNK        -0.1982 
     62 C          34.3586   29.9513    7.7284 C.2       10 UNK         0.4970 
     63 O          33.8730   30.2673    8.8153 O.2       10 UNK        -0.4916 
     64 N          33.6276   29.5784    6.6716 N.am      11 UNK        -0.4279 
     65 CA         32.1582   29.5239    6.6320 C.3       11 UNK         0.1003 
     66 C          31.4584   30.9096    6.7193 C.2       11 UNK         0.5709 
     67 N          32.0619   31.9922    6.2445 N.am      11 UNK        -0.7358 
     68 O          30.3484   31.0038    7.2356 O.2       11 UNK        -0.4999 
     69 C69        31.6531   28.7208    5.4056 C.3       12 UNK        -0.0954 
     70 S70        32.0637   26.9508    5.5478 S.3       12 UNK        -0.2268 
     71 C71        30.7656   26.1895    4.5243 C.3       12 UNK         0.0203 
     72 H72        29.8321   23.2574   -5.2028 H         1 UNK         0.0888 
     73 H73        28.2649   23.4644   -4.4176 H         1 UNK         0.0888 
     74 H74        29.2572   24.8757   -4.7899 H         1 UNK         0.0888 
     75 H75        28.3031   22.9807   -2.2087 H         1 UNK         0.3017 
     76 H76        30.2213   24.0865   -0.4733 H         1 UNK         0.0873 
     77 H77        31.4758   21.9788   -1.3116 H         1 UNK         0.0745 
     78 H78        30.2223   21.0194   -0.5902 H         1 UNK         0.0745 
     79 H79        33.1485   23.4509   -0.1889 H         1 UNK         0.0705 
     80 H80        33.7205   23.2000    1.4425 H         1 UNK         0.0705 
     81 H81        31.9769   24.0602    3.3494 H         1 UNK         0.1334 
     82 H82        30.5194   27.9980    2.4934 H         1 UNK         0.1417 
     83 H83        32.3244   25.6562   -0.6176 H         1 UNK         0.1562 
     84 H84        32.0905   28.4350   -0.5480 H         1 UNK         0.0748 
     85 H85        30.6507   28.9152    0.3260 H         1 UNK         0.0748 
     86 H86        28.9557   26.3865    0.2294 H         1 UNK         0.0940 
     87 H87        28.5807   25.7990   -1.3536 H         1 UNK         0.0940 
     88 H88        27.3020   27.9976   -1.7812 H         1 UNK         0.0703 
     89 H89        26.3971   25.8571    0.0521 H         1 UNK         0.3081 
     90 H90        23.0610   26.0248   -0.9718 H         1 UNK         0.0719 
     91 H91        23.9854   24.7532   -2.9169 H         1 UNK         0.0809 
     92 H92        25.0935   23.8986   -1.8518 H         1 UNK         0.0809 
     93 H93        23.3523   23.6637   -1.6946 H         1 UNK         0.0809 
     94 H94        24.6383   24.1397    0.5596 H         1 UNK         0.2990 
     95 H95        24.6809   25.9355    3.5705 H         1 UNK         0.0690 
     96 H96        23.3349   24.1251    4.5903 H         1 UNK         0.0788 
     97 H97        22.7438   23.6271    3.0040 H         1 UNK         0.0788 
     98 H98        22.2915   25.1913    3.6670 H         1 UNK         0.0788 
     99 H99        25.2181   23.2185    3.2394 H         1 UNK         0.2993 
    100 H100       28.2439   23.4200    3.5070 H         1 UNK         0.0949 
    101 H101       26.4650   21.7315    3.6354 H         1 UNK         0.0767 
    102 H102       26.4001   21.5821    1.8797 H         1 UNK         0.0767 
    103 H103       27.8170   21.0388    2.7689 H         1 UNK         0.0767 
    104 H104       29.6549   23.3626    1.8137 H         1 UNK         0.3013 
    105 H105       26.9330   27.1804    1.6572 H         1 UNK         0.3121 
    106 H106       26.2955   28.2404    3.4224 H         1 UNK         0.0774 
    107 H107       24.6010   29.3963    2.0419 H         1 UNK         0.0815 
    108 H108       25.1551   30.4289    3.3500 H         1 UNK         0.0815 
    109 H109       25.7259   30.7139    1.7147 H         1 UNK         0.0815 
    110 H110       28.4401   30.5102    1.5921 H         1 UNK         0.2987 
    111 H111       30.0535   30.9009    4.0429 H         1 UNK         0.0949 
    112 H112       28.3272   32.6832    4.1964 H         1 UNK         0.0806 
    113 H113       29.8902   33.3896    3.8227 H         1 UNK         0.0806 
    114 H114       28.6871   33.2082    2.5515 H         1 UNK         0.0806 
    115 H115       32.1260   31.5432    3.6835 H         1 UNK         0.3010 
    116 H116       33.3869   32.5214    1.4642 H         1 UNK         0.0829 
    117 H117       34.5774   30.4554    0.5826 H         1 UNK         0.0813 
    118 H118       33.5117   29.4398    1.5553 H         1 UNK         0.0813 
    119 H119       32.8783   30.4211    0.2310 H         1 UNK         0.0813 
    120 H120       35.8108   30.7881    1.9955 H         1 UNK         0.3038 
    121 H121       36.8792   32.0352    4.3227 H         1 UNK         0.0769 
    122 H122       38.7561   30.4112    3.9851 H         1 UNK         0.0811 
    123 H123       38.3064   31.1793    2.4715 H         1 UNK         0.0811 
    124 H124       37.7956   29.5245    2.8101 H         1 UNK         0.0811 
    125 H125       36.7605   31.5037    6.3992 H         1 UNK         0.3204 
    126 H126       36.2680   30.6473    8.3464 H         1 UNK         0.0748 
    127 H127       36.2525   28.2274    8.8032 H         1 UNK         0.0771 
    128 H128       36.1592   27.8557    7.0911 H         1 UNK         0.0771 
    129 H129       37.5994   28.6303    7.7504 H         1 UNK         0.0771 
    130 H130       34.1234   29.3042    5.8286 H         1 UNK         0.2980 
    131 H131       31.8417   28.9840    7.5269 H         1 UNK         0.0545 
    132 H132       32.9654   31.9424    5.7836 H         1 UNK         0.3459 
    133 H133       31.6031   32.8836    6.3394 H         1 UNK         0.3459 
    134 H134       30.5693   28.8103    5.3149 H         1 UNK         0.0616 
    135 H135       32.0777   29.1103    4.4789 H         1 UNK         0.0616 
    136 H136       30.5364   25.2050    4.9349 H         1 UNK         0.0634 
    137 H137       29.8381   26.7609    4.5858 H         1 UNK         0.0634 
@<TRIPOS>BOND
     1    1    2 1    
     2    1   72 1    
     3    1   73 1    
     4    1   74 1    
     5    2    3 2    
     6    2    4 am   BACKBONE|DICT|INTERRES
     7    4    5 1    
     8    4   75 1    
     9    5    6 1    
    10    5   35 1    
    11    5   76 1    
    12    6    7 1    
    13    6   77 1    
    14    6   78 1    
    15    7    8 1    
    16    8    9 1    
    17    8   79 1    
    18    8   80 1    
    19    9   10 ar   
    20    9   14 ar   
    21   10   11 ar   
    22   10   81 1    
    23   11   12 ar   
    24   11   71 1    
    25   12   13 ar   
    26   12   82 1    
    27   13   14 ar   
    28   13   15 1    
    29   14   83 1    
    30   15   16 1    
    31   15   84 1    
    32   15   85 1    
    33   16   17 1    
    34   17   18 1    
    35   17   86 1    
    36   17   87 1    
    37   18   19 1    
    38   18   37 1    
    39   18   88 1    
    40   19   20 am   BACKBONE|DICT|INTERRES
    41   19   89 1    
    42   20   21 2    
    43   20   22 1    
    44   22   23 1    
    45   22   24 1    
    46   22   90 1    
    47   23   91 1    
    48   23   92 1    
    49   23   93 1    
    50   24   25 am   BACKBONE|DICT|INTERRES
    51   24   94 1    
    52   25   26 2    
    53   25   27 1    
    54   27   28 1    
    55   27   29 1    
    56   27   95 1    
    57   28   96 1    
    58   28   97 1    
    59   28   98 1    
    60   29   30 am   BACKBONE|DICT|INTERRES
    61   29   99 1    
    62   30   31 2    
    63   30   32 1    
    64   32   33 1    
    65   32   34 1    
    66   32  100 1    
    67   33  101 1    
    68   33  102 1    
    69   33  103 1    
    70   34   35 am   BACKBONE|DICT|INTERRES
    71   34  104 1    
    72   35   36 2    
    73   37   38 2    
    74   37   39 am   BACKBONE|DICT|INTERRES
    75   39   40 1    
    76   39  105 1    
    77   40   41 1    
    78   40   42 1    
    79   40  106 1    
    80   41  107 1    
    81   41  108 1    
    82   41  109 1    
    83   42   43 2    
    84   42   44 am   BACKBONE|DICT|INTERRES
    85   44   45 1    
    86   44  110 1    
    87   45   46 1    
    88   45   47 1    
    89   45  111 1    
    90   46  112 1    
    91   46  113 1    
    92   46  114 1    
    93   47   48 2    
    94   47   49 am   BACKBONE|DICT|INTERRES
    95   49   50 1    
    96   49  115 1    
    97   50   51 1    
    98   50   52 1    
    99   50  116 1    
   100   51  117 1    
   101   51  118 1    
   102   51  119 1    
   103   52   53 2    
   104   52   54 am   BACKBONE|DICT|INTERRES
   105   54   55 1    
   106   54  120 1    
   107   55   56 1    
   108   55   57 1    
   109   55  121 1    
   110   56  122 1    
   111   56  123 1    
   112   56  124 1    
   113   57   58 2    
   114   57   59 am   BACKBONE|DICT|INTERRES
   115   59   60 1    
   116   59  125 1    
   117   60   61 1    
   118   60   62 1    
   119   60  126 1    
   120   61  127 1    
   121   61  128 1    
   122   61  129 1    
   123   62   63 2    
   124   62   64 am   BACKBONE|DICT|INTERRES
   125   64   65 1    
   126   64  130 1    
   127   65   66 1    
   128   65   69 1    
   129   65  131 1    
   130   66   67 am   BACKBONE|DICT|INTERRES
   131   66   68 2    
   132   67  132 1    
   133   67  133 1    
   134   69   70 1    
   135   69  134 1    
   136   69  135 1    
   137   70   71 1    
   138   71  136 1    
   139   71  137 1    
@<TRIPOS>SUBSTRUCTURE
     1 UNK         1 GROUP             0       ****    0 ROOT    
