@<TRIPOS>MOLECULE
3R136
137   139    1
SMALL
USER_CHARGES


@<TRIPOS>ATOM
      1 CA         28.4741   19.7355    5.2602 C.3       0 UNK        -0.1979 
      2 C          28.2256   20.4950    3.9652 C.2       0 UNK         0.4864 
      3 O          27.2774   20.1799    3.2439 O.2       0 UNK        -0.5359 
      4 N          29.0747   21.4851    3.6618 N.am      1 UNK        -0.4318 
      5 CA         28.9700   22.3533    2.4838 C.3       1 UNK         0.0824 
      6 C6         30.2735   23.1517    2.2416 C.3       12 UNK        -0.0944 
      7 S7         31.6936   22.0463    1.9410 S.3       12 UNK        -0.2672 
      8 C8         32.1879   22.5140    0.2469 C.3       12 UNK         0.0333 
      9 C9         32.7662   23.9238    0.1308 C.ar      12 UNK        -0.0807 
     10 C10        33.5734   24.4652    1.1380 C.ar      12 UNK        -0.0894 
     11 C11        34.0980   25.7558    1.0238 C.ar      12 UNK        -0.0804 
     12 C12        33.8631   26.4853   -0.1471 C.ar      12 UNK        -0.0824 
     13 C13        33.0684   25.9550   -1.1701 C.ar      12 UNK        -0.0762 
     14 C14        32.5162   24.6790   -1.0195 C.ar      12 UNK        -0.0782 
     15 C15        32.8490   26.7377   -2.4593 C.3       12 UNK         0.0230 
     16 S16        31.8155   28.2185   -2.2240 S.3       12 UNK        -0.2608 
     17 C17        30.1257   27.5264   -2.1189 C.3       12 UNK        -0.0989 
     18 CA         29.2130   28.4007   -1.2146 C.3       5 UNK         0.0716 
     19 N          27.8015   28.0614   -1.3176 N.am      5 UNK        -0.4135 
     20 C          26.9251   28.6577   -2.1360 C.2       4 UNK         0.5031 
     21 O          27.2479   29.4167   -3.0509 O.2       4 UNK        -0.5229 
     22 CA         25.4269   28.3926   -1.8779 C.3       4 UNK         0.0329 
     23 CB         24.9044   27.2956   -2.8196 C.3       4 UNK        -0.2001 
     24 N          25.1423   28.0104   -0.4920 N.am      4 UNK        -0.4303 
     25 C          25.3468   28.7831    0.5861 C.2       3 UNK         0.5044 
     26 O          25.5995   29.9861    0.5206 O.2       3 UNK        -0.5152 
     27 CA         25.2968   28.0995    1.9695 C.3       3 UNK         0.0319 
     28 CB         24.1198   28.6373    2.8005 C.3       3 UNK        -0.2001 
     29 N          25.2252   26.6312    1.9365 N.am      3 UNK        -0.4354 
     30 C          26.1631   25.8076    1.4467 C.2       2 UNK         0.4964 
     31 O          27.2067   26.1906    0.9134 O.2       2 UNK        -0.5047 
     32 CA         25.8163   24.3117    1.4608 C.3       2 UNK         0.0288 
     33 CB         25.0161   23.9448    0.1992 C.3       2 UNK        -0.2113 
     34 N          27.0112   23.4700    1.5228 N.am      2 UNK        -0.4145 
     35 C          27.7608   23.3005    2.6192 C.2       1 UNK         0.5006 
     36 O          27.5320   23.8498    3.7008 O.2       1 UNK        -0.5103 
     37 C          29.5498   28.3925    0.2841 C.2       5 UNK         0.5055 
     38 O          29.0852   29.2781    1.0071 O.2       5 UNK        -0.5220 
     39 N          30.3710   27.4248    0.7211 N.am      6 UNK        -0.4450 
     40 CA         30.9781   27.3407    2.0522 C.3       6 UNK         0.0367 
     41 CB         29.9263   26.9767    3.1172 C.3       6 UNK        -0.1929 
     42 C          31.7890   28.6141    2.3717 C.2       6 UNK         0.5070 
     43 O          31.6716   29.1766    3.4633 O.2       6 UNK        -0.5237 
     44 N          32.5393   29.0814    1.3620 N.am      7 UNK        -0.4739 
     45 CA         33.1849   30.3908    1.2147 C.3       7 UNK         0.0276 
     46 CB         34.1900   30.6905    2.3456 C.3       7 UNK        -0.1927 
     47 C          32.1450   31.5082    1.0300 C.2       7 UNK         0.5013 
     48 O          32.0927   32.1202   -0.0367 O.2       7 UNK        -0.5193 
     49 N          31.3124   31.7048    2.0543 N.am      8 UNK        -0.4253 
     50 CA         30.1370   32.5709    2.0834 C.3       8 UNK         0.0242 
     51 CB         30.5473   34.0602    2.0607 C.3       8 UNK        -0.2000 
     52 C          29.3150   32.1948    3.3251 C.2       8 UNK         0.4948 
     53 O          29.0491   33.0584    4.1630 O.2       8 UNK        -0.5275 
     54 N          28.9944   30.8954    3.4550 N.am      9 UNK        -0.4246 
     55 CA         28.4192   30.2498    4.6469 C.3       9 UNK         0.0261 
     56 CB         26.9527   30.6884    4.8475 C.3       9 UNK        -0.1959 
     57 C          29.2954   30.4550    5.9030 C.2       9 UNK         0.5033 
     58 O          28.7773   30.8299    6.9577 O.2       9 UNK        -0.5390 
     59 N          30.6130   30.2533    5.7500 N.am      10 UNK        -0.4215 
     60 CA         31.6314   30.6771    6.7126 C.3       10 UNK         0.0240 
     61 CB         32.2380   32.0115    6.2426 C.3       10 UNK        -0.1982 
     62 C          32.7411   29.6450    6.9671 C.2       10 UNK         0.4970 
     63 O          33.2581   29.6296    8.0855 O.2       10 UNK        -0.4916 
     64 N          33.1192   28.8219    5.9736 N.am      11 UNK        -0.4279 
     65 CA         34.2217   27.8466    6.1286 C.3       11 UNK         0.1003 
     66 C          33.8968   26.6037    7.0126 C.2       11 UNK         0.5709 
     67 N          32.6427   26.3526    7.3707 N.am      11 UNK        -0.7358 
     68 O          34.8031   25.8662    7.3935 O.2       11 UNK        -0.4999 
     69 C69        34.9058   27.4766    4.7813 C.3       12 UNK        -0.0954 
     70 S70        33.9564   26.3256    3.7374 S.3       12 UNK        -0.2268 
     71 C71        34.8979   26.3626    2.1735 C.3       12 UNK         0.0203 
     72 H72        29.3512   20.1080    5.7893 H         1 UNK         0.0888 
     73 H73        28.6288   18.6774    5.0510 H         1 UNK         0.0888 
     74 H74        27.6134   19.8306    5.9216 H         1 UNK         0.0888 
     75 H75        29.8312   21.7035    4.2937 H         1 UNK         0.3017 
     76 H76        28.8015   21.7097    1.6172 H         1 UNK         0.0873 
     77 H77        30.1573   23.8317    1.3951 H         1 UNK         0.0745 
     78 H78        30.5102   23.7781    3.1037 H         1 UNK         0.0745 
     79 H79        32.9402   21.8054   -0.1014 H         1 UNK         0.0705 
     80 H80        31.3248   22.3965   -0.4104 H         1 UNK         0.0705 
     81 H81        33.7788   23.8925    2.0318 H         1 UNK         0.1334 
     82 H82        34.2960   27.4695   -0.2646 H         1 UNK         0.1417 
     83 H83        31.9113   24.2602   -1.8128 H         1 UNK         0.1562 
     84 H84        32.4064   26.1087   -3.2335 H         1 UNK         0.0748 
     85 H85        33.8194   27.0517   -2.8465 H         1 UNK         0.0748 
     86 H86        30.1429   26.4844   -1.7955 H         1 UNK         0.0940 
     87 H87        29.7224   27.5105   -3.1328 H         1 UNK         0.0940 
     88 H88        29.3360   29.4404   -1.5280 H         1 UNK         0.0703 
     89 H89        27.4539   27.4634   -0.5718 H         1 UNK         0.3081 
     90 H90        24.8870   29.3180   -2.0888 H         1 UNK         0.0719 
     91 H91        25.3994   26.3399   -2.6421 H         1 UNK         0.0809 
     92 H92        23.8311   27.1466   -2.6997 H         1 UNK         0.0809 
     93 H93        25.0776   27.5633   -3.8630 H         1 UNK         0.0809 
     94 H94        24.9117   27.0416   -0.3314 H         1 UNK         0.2990 
     95 H95        26.2252   28.3673    2.4792 H         1 UNK         0.0690 
     96 H96        24.1425   28.2492    3.8190 H         1 UNK         0.0788 
     97 H97        23.1591   28.3708    2.3582 H         1 UNK         0.0788 
     98 H98        24.1535   29.7255    2.8723 H         1 UNK         0.0788 
     99 H99        24.3848   26.2239    2.3223 H         1 UNK         0.2993 
    100 H100       25.2038   24.1016    2.3408 H         1 UNK         0.0949 
    101 H101       25.5836   24.1417   -0.7117 H         1 UNK         0.0767 
    102 H102       24.7387   22.8903    0.1992 H         1 UNK         0.0767 
    103 H103       24.0902   24.5184    0.1376 H         1 UNK         0.0767 
    104 H104       27.2846   23.0146    0.6645 H         1 UNK         0.3013 
    105 H105       30.7034   26.7484    0.0486 H         1 UNK         0.3121 
    106 H106       31.6870   26.5172    2.0155 H         1 UNK         0.0774 
    107 H107       29.5248   25.9800    2.9408 H         1 UNK         0.0815 
    108 H108       30.3506   26.9827    4.1219 H         1 UNK         0.0815 
    109 H109       29.0816   27.6592    3.0985 H         1 UNK         0.0815 
    110 H110       32.5112   28.5396    0.5094 H         1 UNK         0.2987 
    111 H111       33.7538   30.3402    0.2845 H         1 UNK         0.0949 
    112 H112       34.9786   29.9397    2.3751 H         1 UNK         0.0806 
    113 H113       34.6723   31.6556    2.1862 H         1 UNK         0.0806 
    114 H114       33.7243   30.7241    3.3295 H         1 UNK         0.0806 
    115 H115       31.4230   31.0877    2.8515 H         1 UNK         0.3010 
    116 H116       29.5224   32.3570    1.2064 H         1 UNK         0.0829 
    117 H117       31.0762   34.3201    1.1442 H         1 UNK         0.0813 
    118 H118       29.6711   34.7073    2.1166 H         1 UNK         0.0813 
    119 H119       31.1939   34.3098    2.9028 H         1 UNK         0.0813 
    120 H120       29.1947   30.2761    2.6711 H         1 UNK         0.3038 
    121 H121       28.4068   29.1787    4.4628 H         1 UNK         0.0769 
    122 H122       26.8771   31.7439    5.1104 H         1 UNK         0.0811 
    123 H123       26.4810   30.1191    5.6492 H         1 UNK         0.0811 
    124 H124       26.3647   30.5266    3.9445 H         1 UNK         0.0811 
    125 H125       30.9493   29.8776    4.8629 H         1 UNK         0.3204 
    126 H126       31.1621   30.8510    7.6833 H         1 UNK         0.0748 
    127 H127       32.9959   32.3677    6.9418 H         1 UNK         0.0771 
    128 H128       32.7112   31.9176    5.2648 H         1 UNK         0.0771 
    129 H129       31.4752   32.7873    6.1694 H         1 UNK         0.0771 
    130 H130       32.6668   28.8609    5.0663 H         1 UNK         0.2980 
    131 H131       34.9983   28.3698    6.6903 H         1 UNK         0.0545 
    132 H132       31.8961   26.9543    7.0646 H         1 UNK         0.3459 
    133 H133       32.4449   25.5511    7.9480 H         1 UNK         0.3459 
    134 H134       35.1099   28.3838    4.2124 H         1 UNK         0.0616 
    135 H135       35.8791   27.0217    4.9735 H         1 UNK         0.0616 
    136 H136       35.1669   27.3949    1.9453 H         1 UNK         0.0634 
    137 H137       35.8311   25.8124    2.2999 H         1 UNK         0.0634 
@<TRIPOS>BOND
     1    1    2 1    
     2    1   72 1    
     3    1   73 1    
     4    1   74 1    
     5    2    3 2    
     6    2    4 am   BACKBONE|DICT|INTERRES
     7    4    5 1    
     8    4   75 1    
     9    5    6 1    
    10    5   35 1    
    11    5   76 1    
    12    6    7 1    
    13    6   77 1    
    14    6   78 1    
    15    7    8 1    
    16    8    9 1    
    17    8   79 1    
    18    8   80 1    
    19    9   10 ar   
    20    9   14 ar   
    21   10   11 ar   
    22   10   81 1    
    23   11   12 ar   
    24   11   71 1    
    25   12   13 ar   
    26   12   82 1    
    27   13   14 ar   
    28   13   15 1    
    29   14   83 1    
    30   15   16 1    
    31   15   84 1    
    32   15   85 1    
    33   16   17 1    
    34   17   18 1    
    35   17   86 1    
    36   17   87 1    
    37   18   19 1    
    38   18   37 1    
    39   18   88 1    
    40   19   20 am   BACKBONE|DICT|INTERRES
    41   19   89 1    
    42   20   21 2    
    43   20   22 1    
    44   22   23 1    
    45   22   24 1    
    46   22   90 1    
    47   23   91 1    
    48   23   92 1    
    49   23   93 1    
    50   24   25 am   BACKBONE|DICT|INTERRES
    51   24   94 1    
    52   25   26 2    
    53   25   27 1    
    54   27   28 1    
    55   27   29 1    
    56   27   95 1    
    57   28   96 1    
    58   28   97 1    
    59   28   98 1    
    60   29   30 am   BACKBONE|DICT|INTERRES
    61   29   99 1    
    62   30   31 2    
    63   30   32 1    
    64   32   33 1    
    65   32   34 1    
    66   32  100 1    
    67   33  101 1    
    68   33  102 1    
    69   33  103 1    
    70   34   35 am   BACKBONE|DICT|INTERRES
    71   34  104 1    
    72   35   36 2    
    73   37   38 2    
    74   37   39 am   BACKBONE|DICT|INTERRES
    75   39   40 1    
    76   39  105 1    
    77   40   41 1    
    78   40   42 1    
    79   40  106 1    
    80   41  107 1    
    81   41  108 1    
    82   41  109 1    
    83   42   43 2    
    84   42   44 am   BACKBONE|DICT|INTERRES
    85   44   45 1    
    86   44  110 1    
    87   45   46 1    
    88   45   47 1    
    89   45  111 1    
    90   46  112 1    
    91   46  113 1    
    92   46  114 1    
    93   47   48 2    
    94   47   49 am   BACKBONE|DICT|INTERRES
    95   49   50 1    
    96   49  115 1    
    97   50   51 1    
    98   50   52 1    
    99   50  116 1    
   100   51  117 1    
   101   51  118 1    
   102   51  119 1    
   103   52   53 2    
   104   52   54 am   BACKBONE|DICT|INTERRES
   105   54   55 1    
   106   54  120 1    
   107   55   56 1    
   108   55   57 1    
   109   55  121 1    
   110   56  122 1    
   111   56  123 1    
   112   56  124 1    
   113   57   58 2    
   114   57   59 am   BACKBONE|DICT|INTERRES
   115   59   60 1    
   116   59  125 1    
   117   60   61 1    
   118   60   62 1    
   119   60  126 1    
   120   61  127 1    
   121   61  128 1    
   122   61  129 1    
   123   62   63 2    
   124   62   64 am   BACKBONE|DICT|INTERRES
   125   64   65 1    
   126   64  130 1    
   127   65   66 1    
   128   65   69 1    
   129   65  131 1    
   130   66   67 am   BACKBONE|DICT|INTERRES
   131   66   68 2    
   132   67  132 1    
   133   67  133 1    
   134   69   70 1    
   135   69  134 1    
   136   69  135 1    
   137   70   71 1    
   138   71  136 1    
   139   71  137 1    
@<TRIPOS>SUBSTRUCTURE
     1 UNK         1 GROUP             0       ****    0 ROOT    
