@<TRIPOS>MOLECULE
3R136
137   139    1
SMALL
USER_CHARGES


@<TRIPOS>ATOM
      1 CA         30.7294   23.8783   -2.8378 C.3       0 UNK        -0.1979 
      2 C          30.2838   23.1352   -1.5866 C.2       0 UNK         0.4864 
      3 O          30.0630   21.9247   -1.6446 O.2       0 UNK        -0.5359 
      4 N          30.1598   23.8597   -0.4657 N.am      1 UNK        -0.4318 
      5 CA         29.6735   23.3987    0.8406 C.3       1 UNK         0.0824 
      6 C6         30.4857   22.1948    1.4010 C.3       12 UNK        -0.0944 
      7 S7         30.5898   22.1556    3.2243 S.3       12 UNK        -0.2672 
      8 C8         32.1551   23.0342    3.5412 C.3       12 UNK         0.0333 
      9 C9         31.9530   24.5412    3.5174 C.ar      12 UNK        -0.0807 
     10 C10        31.5505   25.2093    4.6768 C.ar      12 UNK        -0.0894 
     11 C11        31.3403   26.5914    4.6629 C.ar      12 UNK        -0.0804 
     12 C12        31.5006   27.3016    3.4694 C.ar      12 UNK        -0.0824 
     13 C13        31.9032   26.6422    2.3043 C.ar      12 UNK        -0.0762 
     14 C14        32.1536   25.2671    2.3401 C.ar      12 UNK        -0.0782 
     15 C15        32.0556   27.4085    1.0005 C.3       12 UNK         0.0230 
     16 S16        30.6751   27.0616   -0.1344 S.3       12 UNK        -0.2608 
     17 C17        29.2812   27.8476    0.7392 C.3       12 UNK        -0.0989 
     18 CA         28.1706   28.2672   -0.2522 C.3       5 UNK         0.0716 
     19 N          27.4467   27.1197   -0.7983 N.am      5 UNK        -0.4135 
     20 C          26.8535   27.1076   -1.9986 C.2       4 UNK         0.5031 
     21 O          26.9406   28.0262   -2.8151 O.2       4 UNK        -0.5229 
     22 CA         26.0094   25.8723   -2.3515 C.3       4 UNK         0.0329 
     23 CB         26.8632   24.8253   -3.0841 C.3       4 UNK        -0.2001 
     24 N          25.3532   25.2658   -1.1861 N.am      4 UNK        -0.4303 
     25 C          24.2842   25.8042   -0.5751 C.2       3 UNK         0.5044 
     26 O          23.7904   26.8820   -0.9100 O.2       3 UNK        -0.5152 
     27 CA         23.6137   25.0205    0.5709 C.3       3 UNK         0.0319 
     28 CB         22.2448   24.4823    0.1205 C.3       3 UNK        -0.2001 
     29 N          24.4111   23.9017    1.0743 N.am      3 UNK        -0.4354 
     30 C          25.4077   24.0126    1.9609 C.2       2 UNK         0.4964 
     31 O          25.7555   25.0800    2.4678 O.2       2 UNK        -0.5047 
     32 CA         26.1731   22.7246    2.3314 C.3       2 UNK         0.0288 
     33 CB         25.6058   21.4348    1.6930 C.3       2 UNK        -0.2113 
     34 N          27.6030   22.8547    2.0306 N.am      2 UNK        -0.4145 
     35 C          28.1440   23.1867    0.8496 C.2       1 UNK         0.5006 
     36 O          27.4757   23.3801   -0.1705 O.2       1 UNK        -0.5103 
     37 C          27.1461   29.2096    0.4001 C.2       5 UNK         0.5055 
     38 O          26.5853   28.8729    1.4444 O.2       5 UNK        -0.5220 
     39 N          26.9117   30.3634   -0.2381 N.am      6 UNK        -0.4450 
     40 CA         25.9687   31.3922    0.2127 C.3       6 UNK         0.0367 
     41 CB         25.6129   32.2964   -0.9794 C.3       6 UNK        -0.1929 
     42 C          26.4876   32.2380    1.3915 C.2       6 UNK         0.5070 
     43 O          25.6942   32.9433    2.0159 O.2       6 UNK        -0.5237 
     44 N          27.7939   32.1707    1.6705 N.am      7 UNK        -0.4739 
     45 CA         28.4679   32.8567    2.7678 C.3       7 UNK         0.0276 
     46 CB         29.1212   34.1445    2.2365 C.3       7 UNK        -0.1927 
     47 C          29.5194   31.9178    3.3680 C.2       7 UNK         0.5013 
     48 O          29.9591   30.9756    2.7004 O.2       7 UNK        -0.5193 
     49 N          29.9303   32.2094    4.6079 N.am      8 UNK        -0.4253 
     50 CA         30.9437   31.4677    5.3610 C.3       8 UNK         0.0242 
     51 CB         30.7561   31.7508    6.8634 C.3       8 UNK        -0.2000 
     52 C          32.3710   31.7845    4.8733 C.2       8 UNK         0.4948 
     53 O          33.1692   32.3649    5.6132 O.2       8 UNK        -0.5275 
     54 N          32.6620   31.4196    3.6193 N.am      9 UNK        -0.4246 
     55 CA         33.9559   31.5884    2.9589 C.3       9 UNK         0.0261 
     56 CB         33.7634   31.4467    1.4381 C.3       9 UNK        -0.1959 
     57 C          34.9942   30.5974    3.5149 C.2       9 UNK         0.5033 
     58 O          35.2356   29.5524    2.9073 O.2       9 UNK        -0.5390 
     59 N          35.5480   30.9279    4.6896 N.am      10 UNK        -0.4215 
     60 CA         36.5552   30.2079    5.4862 C.3       10 UNK         0.0240 
     61 CB         37.8614   29.9956    4.6954 C.3       10 UNK        -0.1982 
     62 C          36.0643   28.8888    6.1124 C.2       10 UNK         0.4970 
     63 O          36.4102   28.6149    7.2627 O.2       10 UNK        -0.4916 
     64 N          35.2631   28.1202    5.3676 N.am      11 UNK        -0.4279 
     65 CA         34.6487   26.8422    5.7571 C.3       11 UNK         0.1003 
     66 C          35.6871   25.7005    5.9805 C.2       11 UNK         0.5709 
     67 N          35.3068   24.6061    6.6278 N.am      11 UNK        -0.7358 
     68 O          36.8286   25.7676    5.5263 O.2       11 UNK        -0.4999 
     69 C69        33.6133   26.9925    6.9168 C.3       12 UNK        -0.0954 
     70 S70        32.3586   28.2832    6.6038 S.3       12 UNK        -0.2268 
     71 C71        30.9616   27.3189    5.9434 C.3       12 UNK         0.0203 
     72 H72        30.0032   23.7351   -3.6374 H         1 UNK         0.0888 
     73 H73        30.8311   24.9493   -2.6622 H         1 UNK         0.0888 
     74 H74        31.6916   23.4967   -3.1781 H         1 UNK         0.0888 
     75 H75        30.3390   24.8556   -0.5133 H         1 UNK         0.3017 
     76 H76        29.8293   24.2531    1.4983 H         1 UNK         0.0873 
     77 H77        31.5044   22.2142    1.0112 H         1 UNK         0.0745 
     78 H78        30.0661   21.2486    1.0538 H         1 UNK         0.0745 
     79 H79        32.9153   22.7316    2.8196 H         1 UNK         0.0705 
     80 H80        32.5331   22.7322    4.5193 H         1 UNK         0.0705 
     81 H81        31.4076   24.6519    5.5924 H         1 UNK         0.1334 
     82 H82        31.3208   28.3680    3.4528 H         1 UNK         0.1417 
     83 H83        32.4651   24.7560    1.4392 H         1 UNK         0.1562 
     84 H84        32.9936   27.1270    0.5198 H         1 UNK         0.0748 
     85 H85        32.1151   28.4816    1.1841 H         1 UNK         0.0748 
     86 H86        29.6619   28.7203    1.2731 H         1 UNK         0.0940 
     87 H87        28.8984   27.1664    1.5021 H         1 UNK         0.0940 
     88 H88        28.6541   28.8067   -1.0704 H         1 UNK         0.0703 
     89 H89        27.2845   26.3451   -0.1721 H         1 UNK         0.3081 
     90 H90        25.2285   26.1988   -3.0421 H         1 UNK         0.0719 
     91 H91        27.2672   25.2345   -4.0110 H         1 UNK         0.0809 
     92 H92        27.7098   24.5000   -2.4813 H         1 UNK         0.0809 
     93 H93        26.2779   23.9439   -3.3461 H         1 UNK         0.0809 
     94 H94        25.7537   24.4029   -0.8329 H         1 UNK         0.2990 
     95 H95        23.4452   25.7265    1.3872 H         1 UNK         0.0690 
     96 H96        21.7251   23.9839    0.9391 H         1 UNK         0.0788 
     97 H97        22.3404   23.7708   -0.7008 H         1 UNK         0.0788 
     98 H98        21.5993   25.2917   -0.2236 H         1 UNK         0.0788 
     99 H99        24.2095   22.9888    0.6917 H         1 UNK         0.2993 
    100 H100       26.0886   22.6244    3.4147 H         1 UNK         0.0949 
    101 H101       26.1572   20.5590    2.0358 H         1 UNK         0.0767 
    102 H102       24.5627   21.2788    1.9718 H         1 UNK         0.0767 
    103 H103       25.6653   21.4496    0.6039 H         1 UNK         0.0767 
    104 H104       28.2316   22.7393    2.8157 H         1 UNK         0.3013 
    105 H105       27.3956   30.5455   -1.1067 H         1 UNK         0.3121 
    106 H106       25.0546   30.8971    0.5482 H         1 UNK         0.0774 
    107 H107       25.1788   31.7223   -1.7983 H         1 UNK         0.0815 
    108 H108       24.8793   33.0511   -0.6921 H         1 UNK         0.0815 
    109 H109       26.4878   32.8232   -1.3626 H         1 UNK         0.0815 
    110 H110       28.3729   31.5127    1.1658 H         1 UNK         0.2987 
    111 H111       27.7483   33.1060    3.5512 H         1 UNK         0.0949 
    112 H112       28.3775   34.8172    1.8087 H         1 UNK         0.0806 
    113 H113       29.6277   34.6894    3.0341 H         1 UNK         0.0806 
    114 H114       29.8620   33.9312    1.4646 H         1 UNK         0.0806 
    115 H115       29.5465   33.0245    5.0646 H         1 UNK         0.3010 
    116 H116       30.7775   30.4008    5.2013 H         1 UNK         0.0829 
    117 H117       31.4856   31.1990    7.4579 H         1 UNK         0.0813 
    118 H118       30.8808   32.8091    7.0956 H         1 UNK         0.0813 
    119 H119       29.7670   31.4447    7.2044 H         1 UNK         0.0813 
    120 H120       31.9169   30.9968    3.0744 H         1 UNK         0.3038 
    121 H121       34.3177   32.6005    3.1532 H         1 UNK         0.0769 
    122 H122       34.7100   31.5793    0.9127 H         1 UNK         0.0811 
    123 H123       33.0715   32.1966    1.0542 H         1 UNK         0.0811 
    124 H124       33.3764   30.4650    1.1663 H         1 UNK         0.0811 
    125 H125       35.1482   31.7418    5.1466 H         1 UNK         0.3204 
    126 H126       36.7875   30.8729    6.3197 H         1 UNK         0.0748 
    127 H127       38.6330   29.5602    5.3318 H         1 UNK         0.0771 
    128 H128       37.7232   29.3204    3.8504 H         1 UNK         0.0771 
    129 H129       38.2512   30.9386    4.3120 H         1 UNK         0.0771 
    130 H130       35.0939   28.4238    4.4128 H         1 UNK         0.2980 
    131 H131       34.1056   26.5284    4.8671 H         1 UNK         0.0545 
    132 H132       34.3742   24.5145    6.9964 H         1 UNK         0.3459 
    133 H133       35.9720   23.8597    6.7554 H         1 UNK         0.3459 
    134 H134       33.0925   26.0527    7.1021 H         1 UNK         0.0616 
    135 H135       34.1229   27.2405    7.8489 H         1 UNK         0.0616 
    136 H136       30.6173   26.6174    6.7048 H         1 UNK         0.0634 
    137 H137       30.1264   27.9922    5.7458 H         1 UNK         0.0634 
@<TRIPOS>BOND
     1    1    2 1    
     2    1   72 1    
     3    1   73 1    
     4    1   74 1    
     5    2    3 2    
     6    2    4 am   BACKBONE|DICT|INTERRES
     7    4    5 1    
     8    4   75 1    
     9    5    6 1    
    10    5   35 1    
    11    5   76 1    
    12    6    7 1    
    13    6   77 1    
    14    6   78 1    
    15    7    8 1    
    16    8    9 1    
    17    8   79 1    
    18    8   80 1    
    19    9   10 ar   
    20    9   14 ar   
    21   10   11 ar   
    22   10   81 1    
    23   11   12 ar   
    24   11   71 1    
    25   12   13 ar   
    26   12   82 1    
    27   13   14 ar   
    28   13   15 1    
    29   14   83 1    
    30   15   16 1    
    31   15   84 1    
    32   15   85 1    
    33   16   17 1    
    34   17   18 1    
    35   17   86 1    
    36   17   87 1    
    37   18   19 1    
    38   18   37 1    
    39   18   88 1    
    40   19   20 am   BACKBONE|DICT|INTERRES
    41   19   89 1    
    42   20   21 2    
    43   20   22 1    
    44   22   23 1    
    45   22   24 1    
    46   22   90 1    
    47   23   91 1    
    48   23   92 1    
    49   23   93 1    
    50   24   25 am   BACKBONE|DICT|INTERRES
    51   24   94 1    
    52   25   26 2    
    53   25   27 1    
    54   27   28 1    
    55   27   29 1    
    56   27   95 1    
    57   28   96 1    
    58   28   97 1    
    59   28   98 1    
    60   29   30 am   BACKBONE|DICT|INTERRES
    61   29   99 1    
    62   30   31 2    
    63   30   32 1    
    64   32   33 1    
    65   32   34 1    
    66   32  100 1    
    67   33  101 1    
    68   33  102 1    
    69   33  103 1    
    70   34   35 am   BACKBONE|DICT|INTERRES
    71   34  104 1    
    72   35   36 2    
    73   37   38 2    
    74   37   39 am   BACKBONE|DICT|INTERRES
    75   39   40 1    
    76   39  105 1    
    77   40   41 1    
    78   40   42 1    
    79   40  106 1    
    80   41  107 1    
    81   41  108 1    
    82   41  109 1    
    83   42   43 2    
    84   42   44 am   BACKBONE|DICT|INTERRES
    85   44   45 1    
    86   44  110 1    
    87   45   46 1    
    88   45   47 1    
    89   45  111 1    
    90   46  112 1    
    91   46  113 1    
    92   46  114 1    
    93   47   48 2    
    94   47   49 am   BACKBONE|DICT|INTERRES
    95   49   50 1    
    96   49  115 1    
    97   50   51 1    
    98   50   52 1    
    99   50  116 1    
   100   51  117 1    
   101   51  118 1    
   102   51  119 1    
   103   52   53 2    
   104   52   54 am   BACKBONE|DICT|INTERRES
   105   54   55 1    
   106   54  120 1    
   107   55   56 1    
   108   55   57 1    
   109   55  121 1    
   110   56  122 1    
   111   56  123 1    
   112   56  124 1    
   113   57   58 2    
   114   57   59 am   BACKBONE|DICT|INTERRES
   115   59   60 1    
   116   59  125 1    
   117   60   61 1    
   118   60   62 1    
   119   60  126 1    
   120   61  127 1    
   121   61  128 1    
   122   61  129 1    
   123   62   63 2    
   124   62   64 am   BACKBONE|DICT|INTERRES
   125   64   65 1    
   126   64  130 1    
   127   65   66 1    
   128   65   69 1    
   129   65  131 1    
   130   66   67 am   BACKBONE|DICT|INTERRES
   131   66   68 2    
   132   67  132 1    
   133   67  133 1    
   134   69   70 1    
   135   69  134 1    
   136   69  135 1    
   137   70   71 1    
   138   71  136 1    
   139   71  137 1    
@<TRIPOS>SUBSTRUCTURE
     1 UNK         1 GROUP             0       ****    0 ROOT    
