@<TRIPOS>MOLECULE
3R136
137   139    1
SMALL
USER_CHARGES


@<TRIPOS>ATOM
      1 CA         32.7738   25.4055   -5.1102 C.3       0 UNK        -0.1979 
      2 C          32.0521   25.8507   -3.8471 C.2       0 UNK         0.4864 
      3 O          32.3420   26.9278   -3.3232 O.2       0 UNK        -0.5359 
      4 N          31.1162   25.0311   -3.3493 N.am      1 UNK        -0.4318 
      5 CA         30.2900   25.3253   -2.1772 C.3       1 UNK         0.0824 
      6 C6         29.7404   24.0235   -1.5300 C.3       12 UNK        -0.0944 
      7 S7         29.4893   24.1838    0.2703 S.3       12 UNK        -0.2672 
      8 C8         31.0341   23.4416    0.8894 C.3       12 UNK         0.0333 
      9 C9         31.0846   23.4419    2.4099 C.ar      12 UNK        -0.0807 
     10 C10        31.8618   24.3796    3.0985 C.ar      12 UNK        -0.0894 
     11 C11        31.8944   24.3827    4.4970 C.ar      12 UNK        -0.0804 
     12 C12        31.1529   23.4356    5.2076 C.ar      12 UNK        -0.0824 
     13 C13        30.3571   22.5084    4.5297 C.ar      12 UNK        -0.0762 
     14 C14        30.3438   22.5015    3.1313 C.ar      12 UNK        -0.0782 
     15 C15        29.4543   21.5646    5.3072 C.3       12 UNK         0.0230 
     16 S16        27.6969   21.9747    5.0510 S.3       12 UNK        -0.2608 
     17 C17        27.5684   23.6674    5.7403 C.3       12 UNK        -0.0989 
     18 CA         27.9035   24.8126    4.7345 C.3       5 UNK         0.0716 
     19 N          27.3073   24.6330    3.4087 N.am      5 UNK        -0.4135 
     20 C          26.0062   24.6684    3.1004 C.2       4 UNK         0.5031 
     21 O          25.0968   24.8881    3.9033 O.2       4 UNK        -0.5229 
     22 CA         25.6791   24.4338    1.6174 C.3       4 UNK         0.0329 
     23 CB         24.4685   23.4979    1.4530 C.3       4 UNK        -0.2001 
     24 N          25.4338   25.6704    0.8712 N.am      4 UNK        -0.4303 
     25 C          26.2335   26.7432    0.8026 C.2       3 UNK         0.5044 
     26 O          27.2648   26.9132    1.4637 O.2       3 UNK        -0.5152 
     27 CA         25.8281   27.8096   -0.2150 C.3       3 UNK         0.0319 
     28 CB         25.1223   29.0038    0.4476 C.3       3 UNK        -0.2001 
     29 N          27.0563   28.2196   -0.8806 N.am      3 UNK        -0.4354 
     30 C          27.1479   28.6883   -2.1281 C.2       2 UNK         0.4964 
     31 O          26.1814   29.0310   -2.8100 O.2       2 UNK        -0.5047 
     32 CA         28.5615   28.7441   -2.7340 C.3       2 UNK         0.0288 
     33 CB         29.2452   30.0765   -2.3858 C.3       2 UNK        -0.2113 
     34 N          29.4307   27.6256   -2.3380 N.am      2 UNK        -0.4145 
     35 C          29.1850   26.3268   -2.5783 C.2       1 UNK         0.5006 
     36 O          28.1712   25.9149   -3.1463 O.2       1 UNK        -0.5103 
     37 C          27.6490   26.2198    5.3211 C.2       5 UNK         0.5055 
     38 O          27.5235   26.3560    6.5405 O.2       5 UNK        -0.5220 
     39 N          27.5624   27.2362    4.4510 N.am      6 UNK        -0.4450 
     40 CA         27.2439   28.6125    4.8180 C.3       6 UNK         0.0367 
     41 CB         25.7571   28.8896    4.5142 C.3       6 UNK        -0.1929 
     42 C          28.2103   29.5796    4.1232 C.2       6 UNK         0.5070 
     43 O          29.2726   29.8707    4.6705 O.2       6 UNK        -0.5237 
     44 N          27.8187   30.0878    2.9472 N.am      7 UNK        -0.4739 
     45 CA         28.5083   31.1634    2.2255 C.3       7 UNK         0.0276 
     46 CB         27.5804   31.7164    1.1311 C.3       7 UNK        -0.1927 
     47 C          29.8610   30.7696    1.6119 C.2       7 UNK         0.5013 
     48 O          30.6345   31.6677    1.2816 O.2       7 UNK        -0.5193 
     49 N          30.1122   29.4620    1.4564 N.am      8 UNK        -0.4253 
     50 CA         31.2984   28.8341    0.8609 C.3       8 UNK         0.0242 
     51 CB         31.1241   27.3145    0.9920 C.3       8 UNK        -0.2000 
     52 C          32.6241   29.3020    1.4921 C.2       8 UNK         0.4948 
     53 O          33.0764   28.7091    2.4722 O.2       8 UNK        -0.5275 
     54 N          33.1755   30.4094    0.9679 N.am      9 UNK        -0.4246 
     55 CA         34.2925   31.1957    1.5194 C.3       9 UNK         0.0261 
     56 CB         35.6192   30.4194    1.3805 C.3       9 UNK        -0.1959 
     57 C          34.0381   31.6718    2.9684 C.2       9 UNK         0.5033 
     58 O          34.9862   31.8125    3.7444 O.2       9 UNK        -0.5390 
     59 N          32.7516   31.8245    3.3279 N.am      10 UNK        -0.4215 
     60 CA         32.2045   31.9838    4.6842 C.3       10 UNK         0.0240 
     61 CB         32.5164   33.3975    5.2177 C.3       10 UNK        -0.1982 
     62 C          32.6331   30.8750    5.6779 C.2       10 UNK         0.4970 
     63 O          32.5790   31.0996    6.8886 O.2       10 UNK        -0.4916 
     64 N          33.0924   29.7257    5.1584 N.am      11 UNK        -0.4279 
     65 CA         33.8160   28.6636    5.8720 C.3       11 UNK         0.1003 
     66 C          35.1129   29.1413    6.5979 C.2       11 UNK         0.5709 
     67 N          35.7641   30.2069    6.1426 N.am      11 UNK        -0.7358 
     68 O          35.5598   28.5269    7.5641 O.2       11 UNK        -0.4999 
     69 C69        32.8854   27.7739    6.7424 C.3       12 UNK        -0.0954 
     70 S70        31.6857   26.8452    5.7285 S.3       12 UNK        -0.2268 
     71 C71        32.7112   25.4187    5.2497 C.3       12 UNK         0.0203 
     72 H72        32.4256   24.4332   -5.4581 H         1 UNK         0.0888 
     73 H73        32.6126   26.1294   -5.9086 H         1 UNK         0.0888 
     74 H74        33.8452   25.3354   -4.9245 H         1 UNK         0.0888 
     75 H75        30.8958   24.1750   -3.8385 H         1 UNK         0.3017 
     76 H76        30.9430   25.8048   -1.4469 H         1 UNK         0.0873 
     77 H77        30.4362   23.1991   -1.6946 H         1 UNK         0.0745 
     78 H78        28.8055   23.6981   -1.9901 H         1 UNK         0.0745 
     79 H79        31.8851   23.9875    0.4789 H         1 UNK         0.0705 
     80 H80        31.1175   22.4167    0.5246 H         1 UNK         0.0705 
     81 H81        32.4352   25.1136    2.5493 H         1 UNK         0.1334 
     82 H82        31.1602   23.4536    6.2891 H         1 UNK         0.1417 
     83 H83        29.7223   21.7894    2.6050 H         1 UNK         0.1562 
     84 H84        29.6799   21.5903    6.3745 H         1 UNK         0.0748 
     85 H85        29.6336   20.5403    4.9776 H         1 UNK         0.0748 
     86 H86        28.2101   23.7374    6.6205 H         1 UNK         0.0940 
     87 H87        26.5469   23.7855    6.1066 H         1 UNK         0.0940 
     88 H88        28.9749   24.8031    4.5543 H         1 UNK         0.0703 
     89 H89        27.9683   24.4937    2.6566 H         1 UNK         0.3081 
     90 H90        26.5357   23.9420    1.1519 H         1 UNK         0.0719 
     91 H91        23.5510   23.9533    1.8279 H         1 UNK         0.0809 
     92 H92        24.3095   23.2314    0.4079 H         1 UNK         0.0809 
     93 H93        24.6183   22.5678    2.0033 H         1 UNK         0.0809 
     94 H94        24.6013   25.6709    0.3002 H         1 UNK         0.2990 
     95 H95        25.1592   27.3617   -0.9537 H         1 UNK         0.0690 
     96 H96        24.8729   29.7732   -0.2832 H         1 UNK         0.0788 
     97 H97        25.7378   29.4620    1.2173 H         1 UNK         0.0788 
     98 H98        24.1902   28.6906    0.9195 H         1 UNK         0.0788 
     99 H99        27.8975   27.9340   -0.3966 H         1 UNK         0.2993 
    100 H100       28.4481   28.6937   -3.8191 H         1 UNK         0.0949 
    101 H101       30.2199   30.1625   -2.8666 H         1 UNK         0.0767 
    102 H102       28.6437   30.9217   -2.7237 H         1 UNK         0.0767 
    103 H103       29.3869   30.1912   -1.3118 H         1 UNK         0.0767 
    104 H104       30.3357   27.8714   -1.9641 H         1 UNK         0.3013 
    105 H105       27.6660   27.0451    3.4580 H         1 UNK         0.3121 
    106 H106       27.3953   28.7654    5.8889 H         1 UNK         0.0774 
    107 H107       25.5096   29.9417    4.6629 H         1 UNK         0.0815 
    108 H108       25.4860   28.6191    3.4939 H         1 UNK         0.0815 
    109 H109       25.1150   28.3129    5.1803 H         1 UNK         0.0815 
    110 H110       26.9356   29.7814    2.5683 H         1 UNK         0.2987 
    111 H111       28.7062   31.9661    2.9396 H         1 UNK         0.0949 
    112 H112       28.0274   32.5856    0.6461 H         1 UNK         0.0806 
    113 H113       27.3879   30.9794    0.3509 H         1 UNK         0.0806 
    114 H114       26.6222   32.0366    1.5407 H         1 UNK         0.0806 
    115 H115       29.4113   28.8277    1.8113 H         1 UNK         0.3010 
    116 H116       31.3217   29.0874   -0.2001 H         1 UNK         0.0829 
    117 H117       30.2127   26.9815    0.4990 H         1 UNK         0.0813 
    118 H118       31.9639   26.7788    0.5479 H         1 UNK         0.0813 
    119 H119       31.0555   27.0098    2.0373 H         1 UNK         0.0813 
    120 H120       32.6783   30.8547    0.2073 H         1 UNK         0.3038 
    121 H121       34.3668   32.0986    0.9117 H         1 UNK         0.0769 
    122 H122       36.4692   31.0413    1.6641 H         1 UNK         0.0811 
    123 H123       35.7846   30.0966    0.3527 H         1 UNK         0.0811 
    124 H124       35.6379   29.5344    2.0175 H         1 UNK         0.0811 
    125 H125       32.0566   31.7143    2.5930 H         1 UNK         0.3204 
    126 H126       31.1218   31.8962    4.5862 H         1 UNK         0.0748 
    127 H127       32.0028   33.5850    6.1614 H         1 UNK         0.0771 
    128 H128       33.5838   33.5341    5.3945 H         1 UNK         0.0771 
    129 H129       32.1912   34.1663    4.5168 H         1 UNK         0.0771 
    130 H130       33.0586   29.5920    4.1516 H         1 UNK         0.2980 
    131 H131       34.2079   28.0259    5.0798 H         1 UNK         0.0545 
    132 H132       35.4262   30.7221    5.3349 H         1 UNK         0.3459 
    133 H133       36.6061   30.5039    6.6087 H         1 UNK         0.3459 
    134 H134       33.4573   27.0528    7.3283 H         1 UNK         0.0616 
    135 H135       32.3388   28.3823    7.4640 H         1 UNK         0.0616 
    136 H136       33.5445   25.7603    4.6342 H         1 UNK         0.0634 
    137 H137       33.1479   24.9653    6.1409 H         1 UNK         0.0634 
@<TRIPOS>BOND
     1    1    2 1    
     2    1   72 1    
     3    1   73 1    
     4    1   74 1    
     5    2    3 2    
     6    2    4 am   BACKBONE|DICT|INTERRES
     7    4    5 1    
     8    4   75 1    
     9    5    6 1    
    10    5   35 1    
    11    5   76 1    
    12    6    7 1    
    13    6   77 1    
    14    6   78 1    
    15    7    8 1    
    16    8    9 1    
    17    8   79 1    
    18    8   80 1    
    19    9   10 ar   
    20    9   14 ar   
    21   10   11 ar   
    22   10   81 1    
    23   11   12 ar   
    24   11   71 1    
    25   12   13 ar   
    26   12   82 1    
    27   13   14 ar   
    28   13   15 1    
    29   14   83 1    
    30   15   16 1    
    31   15   84 1    
    32   15   85 1    
    33   16   17 1    
    34   17   18 1    
    35   17   86 1    
    36   17   87 1    
    37   18   19 1    
    38   18   37 1    
    39   18   88 1    
    40   19   20 am   BACKBONE|DICT|INTERRES
    41   19   89 1    
    42   20   21 2    
    43   20   22 1    
    44   22   23 1    
    45   22   24 1    
    46   22   90 1    
    47   23   91 1    
    48   23   92 1    
    49   23   93 1    
    50   24   25 am   BACKBONE|DICT|INTERRES
    51   24   94 1    
    52   25   26 2    
    53   25   27 1    
    54   27   28 1    
    55   27   29 1    
    56   27   95 1    
    57   28   96 1    
    58   28   97 1    
    59   28   98 1    
    60   29   30 am   BACKBONE|DICT|INTERRES
    61   29   99 1    
    62   30   31 2    
    63   30   32 1    
    64   32   33 1    
    65   32   34 1    
    66   32  100 1    
    67   33  101 1    
    68   33  102 1    
    69   33  103 1    
    70   34   35 am   BACKBONE|DICT|INTERRES
    71   34  104 1    
    72   35   36 2    
    73   37   38 2    
    74   37   39 am   BACKBONE|DICT|INTERRES
    75   39   40 1    
    76   39  105 1    
    77   40   41 1    
    78   40   42 1    
    79   40  106 1    
    80   41  107 1    
    81   41  108 1    
    82   41  109 1    
    83   42   43 2    
    84   42   44 am   BACKBONE|DICT|INTERRES
    85   44   45 1    
    86   44  110 1    
    87   45   46 1    
    88   45   47 1    
    89   45  111 1    
    90   46  112 1    
    91   46  113 1    
    92   46  114 1    
    93   47   48 2    
    94   47   49 am   BACKBONE|DICT|INTERRES
    95   49   50 1    
    96   49  115 1    
    97   50   51 1    
    98   50   52 1    
    99   50  116 1    
   100   51  117 1    
   101   51  118 1    
   102   51  119 1    
   103   52   53 2    
   104   52   54 am   BACKBONE|DICT|INTERRES
   105   54   55 1    
   106   54  120 1    
   107   55   56 1    
   108   55   57 1    
   109   55  121 1    
   110   56  122 1    
   111   56  123 1    
   112   56  124 1    
   113   57   58 2    
   114   57   59 am   BACKBONE|DICT|INTERRES
   115   59   60 1    
   116   59  125 1    
   117   60   61 1    
   118   60   62 1    
   119   60  126 1    
   120   61  127 1    
   121   61  128 1    
   122   61  129 1    
   123   62   63 2    
   124   62   64 am   BACKBONE|DICT|INTERRES
   125   64   65 1    
   126   64  130 1    
   127   65   66 1    
   128   65   69 1    
   129   65  131 1    
   130   66   67 am   BACKBONE|DICT|INTERRES
   131   66   68 2    
   132   67  132 1    
   133   67  133 1    
   134   69   70 1    
   135   69  134 1    
   136   69  135 1    
   137   70   71 1    
   138   71  136 1    
   139   71  137 1    
@<TRIPOS>SUBSTRUCTURE
     1 UNK         1 GROUP             0       ****    0 ROOT    
