@<TRIPOS>MOLECULE
3R136
137   139    1
SMALL
USER_CHARGES


@<TRIPOS>ATOM
      1 CA         26.5832   20.0627    2.0874 C.3       0 UNK        -0.1979 
      2 C          27.0503   21.2606    1.2754 C.2       0 UNK         0.4864 
      3 O          26.3150   22.2419    1.1579 O.2       0 UNK        -0.5359 
      4 N          28.2725   21.1969    0.7259 N.am      1 UNK        -0.4318 
      5 CA         28.8896   22.2531   -0.0885 C.3       1 UNK         0.0824 
      6 C6         30.2342   21.8014   -0.7118 C.3       12 UNK        -0.0944 
      7 S7         31.5271   21.3708    0.5109 S.3       12 UNK        -0.2672 
      8 C8         32.9674   22.3046   -0.1004 C.3       12 UNK         0.0333 
      9 C9         32.8978   23.7955    0.2128 C.ar      12 UNK        -0.0807 
     10 C10        33.3895   24.2858    1.4281 C.ar      12 UNK        -0.0894 
     11 C11        33.4166   25.6620    1.6827 C.ar      12 UNK        -0.0804 
     12 C12        32.9198   26.5468    0.7223 C.ar      12 UNK        -0.0824 
     13 C13        32.4235   26.0719   -0.4946 C.ar      12 UNK        -0.0762 
     14 C14        32.4172   24.6961   -0.7433 C.ar      12 UNK        -0.0782 
     15 C15        31.9635   27.0427   -1.5737 C.3       12 UNK         0.0230 
     16 S16        30.1651   26.9855   -1.8360 S.3       12 UNK        -0.2608 
     17 C17        29.5541   27.9726   -0.4309 C.3       12 UNK        -0.0989 
     18 CA         28.0392   28.2540   -0.5703 C.3       5 UNK         0.0716 
     19 N          27.2279   27.0439   -0.4074 N.am      5 UNK        -0.4135 
     20 C          25.9410   26.9331   -0.7682 C.2       4 UNK         0.5031 
     21 O          25.3029   27.8276   -1.3253 O.2       4 UNK        -0.5229 
     22 CA         25.2357   25.6038   -0.4447 C.3       4 UNK         0.0329 
     23 CB         25.5807   24.5252   -1.4843 C.3       4 UNK        -0.2001 
     24 N          25.5486   25.1213    0.9017 N.am      4 UNK        -0.4303 
     25 C          25.1487   25.7271    2.0295 C.2       3 UNK         0.5044 
     26 O          24.3879   26.6941    2.0554 O.2       3 UNK        -0.5152 
     27 CA         25.6961   25.1760    3.3561 C.3       3 UNK         0.0319 
     28 CB         24.7792   24.0719    3.9062 C.3       3 UNK        -0.2001 
     29 N          27.0621   24.6638    3.2427 N.am      3 UNK        -0.4354 
     30 C          28.1475   25.4161    3.0096 C.2       2 UNK         0.4964 
     31 O          28.1271   26.6375    2.8613 O.2       2 UNK        -0.5047 
     32 CA         29.4747   24.6562    2.8646 C.3       2 UNK         0.0288 
     33 CB         29.9694   24.1625    4.2339 C.3       2 UNK        -0.2113 
     34 N          29.3738   23.5196    1.9536 N.am      2 UNK        -0.4145 
     35 C          29.0166   23.5932    0.6636 C.2       1 UNK         0.5006 
     36 O          28.7311   24.6426    0.0886 O.2       1 UNK        -0.5103 
     37 C          27.5775   29.3871    0.3683 C.2       5 UNK         0.5055 
     38 O          27.3925   30.5103   -0.1032 O.2       5 UNK        -0.5220 
     39 N          27.3840   29.0757    1.6596 N.am      6 UNK        -0.4450 
     40 CA         26.8059   29.8914    2.7415 C.3       6 UNK         0.0367 
     41 CB         25.3333   30.2319    2.4433 C.3       6 UNK        -0.1929 
     42 C          27.5748   31.1674    3.1392 C.2       6 UNK         0.5070 
     43 O          27.7007   31.4397    4.3334 O.2       6 UNK        -0.5237 
     44 N          28.0548   31.9377    2.1590 N.am      7 UNK        -0.4739 
     45 CA         28.7330   33.2262    2.3404 C.3       7 UNK         0.0276 
     46 CB         28.1543   34.2219    1.3200 C.3       7 UNK        -0.1927 
     47 C          30.2625   33.1306    2.1921 C.2       7 UNK         0.5013 
     48 O          30.9435   34.1461    2.3456 O.2       7 UNK        -0.5193 
     49 N          30.7766   31.9377    1.8666 N.am      8 UNK        -0.4253 
     50 CA         32.2000   31.6636    1.6606 C.3       8 UNK         0.0242 
     51 CB         32.3414   30.3104    0.9506 C.3       8 UNK        -0.2000 
     52 C          33.0063   31.6779    2.9701 C.2       8 UNK         0.4948 
     53 O          32.4438   31.4598    4.0471 O.2       8 UNK        -0.5275 
     54 N          34.3216   31.9023    2.8457 N.am      9 UNK        -0.4246 
     55 CA         35.2851   31.9540    3.9487 C.3       9 UNK         0.0261 
     56 CB         36.6920   32.2187    3.3861 C.3       9 UNK        -0.1959 
     57 C          35.2662   30.6737    4.8022 C.2       9 UNK         0.5033 
     58 O          35.5750   29.5970    4.2879 O.2       9 UNK        -0.5390 
     59 N          34.8714   30.8312    6.0735 N.am      10 UNK        -0.4215 
     60 CA         34.7009   29.7950    7.1008 C.3       10 UNK         0.0240 
     61 CB         36.0421   29.0923    7.4064 C.3       10 UNK        -0.1982 
     62 C          33.5625   28.7861    6.8311 C.2       10 UNK         0.4970 
     63 O          33.4813   27.7905    7.5530 O.2       10 UNK        -0.4916 
     64 N          32.6950   29.0570    5.8463 N.am      11 UNK        -0.4279 
     65 CA         31.5459   28.2127    5.4794 C.3       11 UNK         0.1003 
     66 C          30.2062   28.9933    5.4218 C.2       11 UNK         0.5709 
     67 N          30.2000   30.2958    5.1765 N.am      11 UNK        -0.7358 
     68 O          29.1486   28.4042    5.6272 O.2       11 UNK        -0.4999 
     69 C69        31.7989   27.4435    4.1566 C.3       12 UNK        -0.0954 
     70 S70        32.9495   26.0485    4.3950 S.3       12 UNK        -0.2268 
     71 C71        34.0518   26.1970    2.9602 C.3       12 UNK         0.0203 
     72 H72        25.6778   19.6446    1.6486 H         1 UNK         0.0888 
     73 H73        27.3370   19.2765    2.1258 H         1 UNK         0.0888 
     74 H74        26.3574   20.3677    3.1088 H         1 UNK         0.0888 
     75 H75        28.8384   20.3713    0.8645 H         1 UNK         0.3017 
     76 H76        28.2012   22.4363   -0.9163 H         1 UNK         0.0873 
     77 H77        30.6019   22.5683   -1.3935 H         1 UNK         0.0745 
     78 H78        30.0663   20.9232   -1.3371 H         1 UNK         0.0745 
     79 H79        33.0755   22.1437   -1.1742 H         1 UNK         0.0705 
     80 H80        33.8660   21.8841    0.3536 H         1 UNK         0.0705 
     81 H81        33.7837   23.5984    2.1642 H         1 UNK         0.1334 
     82 H82        32.9598   27.6083    0.9082 H         1 UNK         0.1417 
     83 H83        32.0591   24.3343   -1.6971 H         1 UNK         0.1562 
     84 H84        32.4581   26.7860   -2.5115 H         1 UNK         0.0748 
     85 H85        32.2695   28.0640   -1.3428 H         1 UNK         0.0748 
     86 H86        30.1140   28.9079   -0.4138 H         1 UNK         0.0940 
     87 H87        29.7769   27.4516    0.5028 H         1 UNK         0.0940 
     88 H88        27.8673   28.6173   -1.5863 H         1 UNK         0.0703 
     89 H89        27.7070   26.2254   -0.0379 H         1 UNK         0.3081 
     90 H90        24.1588   25.7793   -0.4912 H         1 UNK         0.0719 
     91 H91        25.2772   24.8394   -2.4836 H         1 UNK         0.0809 
     92 H92        26.6504   24.3213   -1.5206 H         1 UNK         0.0809 
     93 H93        25.0686   23.5872   -1.2682 H         1 UNK         0.0809 
     94 H94        26.1094   24.2781    0.9748 H         1 UNK         0.2990 
     95 H95        25.7082   25.9994    4.0736 H         1 UNK         0.0690 
     96 H96        25.1156   23.7264    4.8839 H         1 UNK         0.0788 
     97 H97        24.7394   23.2095    3.2395 H         1 UNK         0.0788 
     98 H98        23.7585   24.4379    4.0264 H         1 UNK         0.0788 
     99 H99        27.1737   23.6618    3.2924 H         1 UNK         0.2993 
    100 H100       30.2140   25.3383    2.4405 H         1 UNK         0.0949 
    101 H101       30.0435   24.9873    4.9441 H         1 UNK         0.0767 
    102 H102       29.2987   23.4203    4.6681 H         1 UNK         0.0767 
    103 H103       30.9595   23.7129    4.1555 H         1 UNK         0.0767 
    104 H104       29.6042   22.6103    2.3265 H         1 UNK         0.3013 
    105 H105       27.6318   28.1312    1.9567 H         1 UNK         0.3121 
    106 H106       26.8190   29.2426    3.6194 H         1 UNK         0.0774 
    107 H107       24.7466   29.3319    2.2629 H         1 UNK         0.0815 
    108 H108       24.8752   30.7532    3.2848 H         1 UNK         0.0815 
    109 H109       25.2332   30.8760    1.5691 H         1 UNK         0.0815 
    110 H110       27.8803   31.6302    1.2025 H         1 UNK         0.2987 
    111 H111       28.5362   33.6149    3.3420 H         1 UNK         0.0949 
    112 H112       27.0778   34.3374    1.4470 H         1 UNK         0.0806 
    113 H113       28.5996   35.2108    1.4373 H         1 UNK         0.0806 
    114 H114       28.3380   33.8998    0.2941 H         1 UNK         0.0806 
    115 H115       30.1415   31.1568    1.8107 H         1 UNK         0.3010 
    116 H116       32.6041   32.4418    1.0092 H         1 UNK         0.0829 
    117 H117       33.3875   30.0145    0.8595 H         1 UNK         0.0813 
    118 H118       31.8183   29.5221    1.4916 H         1 UNK         0.0813 
    119 H119       31.9354   30.3575   -0.0595 H         1 UNK         0.0813 
    120 H120       34.7011   32.0343    1.9194 H         1 UNK         0.3038 
    121 H121       35.0102   32.8036    4.5773 H         1 UNK         0.0769 
    122 H122       37.4287   32.2729    4.1889 H         1 UNK         0.0811 
    123 H123       36.7342   33.1645    2.8455 H         1 UNK         0.0811 
    124 H124       37.0104   31.4273    2.7061 H         1 UNK         0.0811 
    125 H125       34.6083   31.7631    6.3653 H         1 UNK         0.3204 
    126 H126       34.4042   30.3285    8.0050 H         1 UNK         0.0748 
    127 H127       35.9583   28.4496    8.2837 H         1 UNK         0.0771 
    128 H128       36.3686   28.4641    6.5770 H         1 UNK         0.0771 
    129 H129       36.8319   29.8147    7.6123 H         1 UNK         0.0771 
    130 H130       32.8041   29.9094    5.3087 H         1 UNK         0.2980 
    131 H131       31.3835   27.4706    6.2635 H         1 UNK         0.0545 
    132 H132       31.0472   30.7905    4.9079 H         1 UNK         0.3459 
    133 H133       29.3046   30.7693    5.1168 H         1 UNK         0.3459 
    134 H134       30.8702   27.0373    3.7588 H         1 UNK         0.0616 
    135 H135       32.1830   28.1209    3.3935 H         1 UNK         0.0616 
    136 H136       34.3611   27.2372    2.8424 H         1 UNK         0.0634 
    137 H137       34.9637   25.6354    3.1674 H         1 UNK         0.0634 
@<TRIPOS>BOND
     1    1    2 1    
     2    1   72 1    
     3    1   73 1    
     4    1   74 1    
     5    2    3 2    
     6    2    4 am   BACKBONE|DICT|INTERRES
     7    4    5 1    
     8    4   75 1    
     9    5    6 1    
    10    5   35 1    
    11    5   76 1    
    12    6    7 1    
    13    6   77 1    
    14    6   78 1    
    15    7    8 1    
    16    8    9 1    
    17    8   79 1    
    18    8   80 1    
    19    9   10 ar   
    20    9   14 ar   
    21   10   11 ar   
    22   10   81 1    
    23   11   12 ar   
    24   11   71 1    
    25   12   13 ar   
    26   12   82 1    
    27   13   14 ar   
    28   13   15 1    
    29   14   83 1    
    30   15   16 1    
    31   15   84 1    
    32   15   85 1    
    33   16   17 1    
    34   17   18 1    
    35   17   86 1    
    36   17   87 1    
    37   18   19 1    
    38   18   37 1    
    39   18   88 1    
    40   19   20 am   BACKBONE|DICT|INTERRES
    41   19   89 1    
    42   20   21 2    
    43   20   22 1    
    44   22   23 1    
    45   22   24 1    
    46   22   90 1    
    47   23   91 1    
    48   23   92 1    
    49   23   93 1    
    50   24   25 am   BACKBONE|DICT|INTERRES
    51   24   94 1    
    52   25   26 2    
    53   25   27 1    
    54   27   28 1    
    55   27   29 1    
    56   27   95 1    
    57   28   96 1    
    58   28   97 1    
    59   28   98 1    
    60   29   30 am   BACKBONE|DICT|INTERRES
    61   29   99 1    
    62   30   31 2    
    63   30   32 1    
    64   32   33 1    
    65   32   34 1    
    66   32  100 1    
    67   33  101 1    
    68   33  102 1    
    69   33  103 1    
    70   34   35 am   BACKBONE|DICT|INTERRES
    71   34  104 1    
    72   35   36 2    
    73   37   38 2    
    74   37   39 am   BACKBONE|DICT|INTERRES
    75   39   40 1    
    76   39  105 1    
    77   40   41 1    
    78   40   42 1    
    79   40  106 1    
    80   41  107 1    
    81   41  108 1    
    82   41  109 1    
    83   42   43 2    
    84   42   44 am   BACKBONE|DICT|INTERRES
    85   44   45 1    
    86   44  110 1    
    87   45   46 1    
    88   45   47 1    
    89   45  111 1    
    90   46  112 1    
    91   46  113 1    
    92   46  114 1    
    93   47   48 2    
    94   47   49 am   BACKBONE|DICT|INTERRES
    95   49   50 1    
    96   49  115 1    
    97   50   51 1    
    98   50   52 1    
    99   50  116 1    
   100   51  117 1    
   101   51  118 1    
   102   51  119 1    
   103   52   53 2    
   104   52   54 am   BACKBONE|DICT|INTERRES
   105   54   55 1    
   106   54  120 1    
   107   55   56 1    
   108   55   57 1    
   109   55  121 1    
   110   56  122 1    
   111   56  123 1    
   112   56  124 1    
   113   57   58 2    
   114   57   59 am   BACKBONE|DICT|INTERRES
   115   59   60 1    
   116   59  125 1    
   117   60   61 1    
   118   60   62 1    
   119   60  126 1    
   120   61  127 1    
   121   61  128 1    
   122   61  129 1    
   123   62   63 2    
   124   62   64 am   BACKBONE|DICT|INTERRES
   125   64   65 1    
   126   64  130 1    
   127   65   66 1    
   128   65   69 1    
   129   65  131 1    
   130   66   67 am   BACKBONE|DICT|INTERRES
   131   66   68 2    
   132   67  132 1    
   133   67  133 1    
   134   69   70 1    
   135   69  134 1    
   136   69  135 1    
   137   70   71 1    
   138   71  136 1    
   139   71  137 1    
@<TRIPOS>SUBSTRUCTURE
     1 UNK         1 GROUP             0       ****    0 ROOT    
