@<TRIPOS>MOLECULE
3R136
137   139    1
SMALL
USER_CHARGES


@<TRIPOS>ATOM
      1 CA         31.5355   26.5218    0.5604 C.3       0 UNK        -0.1979 
      2 C          30.3463   25.5750    0.5234 C.2       0 UNK         0.4864 
      3 O          29.2137   26.0319    0.3590 O.2       0 UNK        -0.5359 
      4 N          30.5961   24.2647    0.6679 N.am      1 UNK        -0.4318 
      5 CA         29.5912   23.1936    0.7299 C.3       1 UNK         0.0824 
      6 C6         30.2108   21.7829    0.9480 C.3       12 UNK        -0.0944 
      7 S7         31.5858   21.7149    2.1450 S.3       12 UNK        -0.2672 
      8 C8         30.7343   21.2369    3.6797 C.3       12 UNK         0.0333 
      9 C9         29.9969   22.4128    4.3004 C.ar      12 UNK        -0.0807 
     10 C10        30.7144   23.5295    4.7357 C.ar      12 UNK        -0.0894 
     11 C11        30.0572   24.6172    5.3133 C.ar      12 UNK        -0.0804 
     12 C12        28.6694   24.5774    5.4755 C.ar      12 UNK        -0.0824 
     13 C13        27.9408   23.4590    5.0539 C.ar      12 UNK        -0.0762 
     14 C14        28.6087   22.3828    4.4603 C.ar      12 UNK        -0.0782 
     15 C15        26.4351   23.3934    5.2616 C.3       12 UNK         0.0230 
     16 S16        25.5216   23.8822    3.7663 S.3       12 UNK        -0.2608 
     17 C17        25.7696   25.6900    3.7596 C.3       12 UNK        -0.0989 
     18 CA         26.7029   26.1573    2.6084 C.3       5 UNK         0.0716 
     19 N          26.2012   25.8047    1.2739 N.am      5 UNK        -0.4135 
     20 C          25.0664   26.2401    0.7063 C.2       4 UNK         0.5031 
     21 O          24.2767   27.0235    1.2377 O.2       4 UNK        -0.5229 
     22 CA         24.7668   25.6846   -0.6964 C.3       4 UNK         0.0329 
     23 CB         23.4946   26.2815   -1.3369 C.3       4 UNK        -0.2001 
     24 N          25.9178   25.7999   -1.5954 N.am      4 UNK        -0.4303 
     25 C          26.5095   26.9161   -2.0505 C.2       3 UNK         0.5044 
     26 O          26.1333   28.0546   -1.7704 O.2       3 UNK        -0.5152 
     27 CA         27.7241   26.7286   -2.9868 C.3       3 UNK         0.0319 
     28 CB         28.7939   27.8169   -2.7927 C.3       3 UNK        -0.2001 
     29 N          28.3579   25.4203   -2.8164 N.am      3 UNK        -0.4354 
     30 C          28.0120   24.2970   -3.4586 C.2       2 UNK         0.4964 
     31 O          27.1575   24.2520   -4.3432 O.2       2 UNK        -0.5047 
     32 CA         28.7023   22.9953   -3.0164 C.3       2 UNK         0.0288 
     33 CB         29.7578   22.5690   -4.0499 C.3       2 UNK        -0.2113 
     34 N          29.3335   23.0717   -1.6946 N.am      2 UNK        -0.4145 
     35 C          28.6895   23.1724   -0.5207 C.2       1 UNK         0.5006 
     36 O          27.4669   23.2817   -0.4071 O.2       1 UNK        -0.5103 
     37 C          27.0321   27.6628    2.6892 C.2       5 UNK         0.5055 
     38 O          26.4907   28.3762    3.5384 O.2       5 UNK        -0.5220 
     39 N          27.8994   28.1269    1.7805 N.am      6 UNK        -0.4450 
     40 CA         28.3565   29.5138    1.6899 C.3       6 UNK         0.0367 
     41 CB         28.9487   29.7629    0.2931 C.3       6 UNK        -0.1929 
     42 C          29.3569   29.8373    2.8125 C.2       6 UNK         0.5070 
     43 O          30.5649   29.8177    2.5854 O.2       6 UNK        -0.5237 
     44 N          28.8242   30.1047    4.0114 N.am      7 UNK        -0.4739 
     45 CA         29.5754   30.3623    5.2441 C.3       7 UNK         0.0276 
     46 CB         28.5962   30.3582    6.4290 C.3       7 UNK        -0.1927 
     47 C          30.4104   31.6582    5.2397 C.2       7 UNK         0.5013 
     48 O          31.3264   31.7816    6.0544 O.2       7 UNK        -0.5193 
     49 N          30.0650   32.6086    4.3606 N.am      8 UNK        -0.4253 
     50 CA         30.7370   33.9000    4.2081 C.3       8 UNK         0.0242 
     51 CB         29.8876   34.8003    3.2959 C.3       8 UNK        -0.2000 
     52 C          32.1612   33.7581    3.6429 C.2       8 UNK         0.4948 
     53 O          32.3987   32.9075    2.7833 O.2       8 UNK        -0.5275 
     54 N          33.0659   34.6297    4.1092 N.am      9 UNK        -0.4246 
     55 CA         34.4869   34.7520    3.7534 C.3       9 UNK         0.0261 
     56 CB         34.6849   35.0700    2.2567 C.3       9 UNK        -0.1959 
     57 C          35.3503   33.5597    4.2029 C.2       9 UNK         0.5033 
     58 O          36.2683   33.7568    5.0008 O.2       9 UNK        -0.5390 
     59 N          35.0509   32.3577    3.7013 N.am      10 UNK        -0.4215 
     60 CA         35.7390   31.1090    4.0194 C.3       10 UNK         0.0240 
     61 CB         37.0821   31.0244    3.2686 C.3       10 UNK        -0.1982 
     62 C          34.8317   29.9331    3.6464 C.2       10 UNK         0.4970 
     63 O          34.1553   29.9954    2.6187 O.2       10 UNK        -0.4916 
     64 N          34.8613   28.8819    4.4708 N.am      11 UNK        -0.4279 
     65 CA         34.0372   27.6700    4.3353 C.3       11 UNK         0.1003 
     66 C          34.8081   26.3717    4.7227 C.2       11 UNK         0.5709 
     67 N          36.1341   26.3933    4.8076 N.am      11 UNK        -0.7358 
     68 O          34.2111   25.3209    4.9393 O.2       11 UNK        -0.4999 
     69 C69        32.6767   27.8514    5.0670 C.3       12 UNK        -0.0954 
     70 S70        31.3230   26.8609    4.3485 S.3       12 UNK        -0.2268 
     71 C71        30.8650   25.8209    5.7660 C.3       12 UNK         0.0203 
     72 H72        31.3549   27.3212    1.2794 H         1 UNK         0.0888 
     73 H73        32.4541   26.0115    0.8494 H         1 UNK         0.0888 
     74 H74        31.6860   26.9742   -0.4191 H         1 UNK         0.0888 
     75 H75        31.5461   23.9577    0.8239 H         1 UNK         0.3017 
     76 H76        28.9541   23.4177    1.5882 H         1 UNK         0.0873 
     77 H77        29.4346   21.0774    1.2504 H         1 UNK         0.0745 
     78 H78        30.6176   21.3857    0.0159 H         1 UNK         0.0745 
     79 H79        30.0618   20.4000    3.4854 H         1 UNK         0.0705 
     80 H80        31.4763   20.8736    4.3921 H         1 UNK         0.0705 
     81 H81        31.7893   23.5596    4.6128 H         1 UNK         0.1334 
     82 H82        28.1604   25.4129    5.9357 H         1 UNK         0.1417 
     83 H83        28.0457   21.5192    4.1326 H         1 UNK         0.1562 
     84 H84        26.1312   24.0178    6.1033 H         1 UNK         0.0748 
     85 H85        26.1488   22.3745    5.5270 H         1 UNK         0.0748 
     86 H86        26.1688   26.0026    4.7253 H         1 UNK         0.0940 
     87 H87        24.7915   26.1676    3.6843 H         1 UNK         0.0940 
     88 H88        27.6548   25.6358    2.7246 H         1 UNK         0.0703 
     89 H89        26.7928   25.1830    0.7363 H         1 UNK         0.3081 
     90 H90        24.5929   24.6154   -0.5649 H         1 UNK         0.0719 
     91 H91        23.5669   27.3629   -1.4563 H         1 UNK         0.0809 
     92 H92        23.3029   25.8472   -2.3180 H         1 UNK         0.0809 
     93 H93        22.6185   26.0830   -0.7183 H         1 UNK         0.0809 
     94 H94        26.3393   24.9199   -1.8601 H         1 UNK         0.2990 
     95 H95        27.3460   26.8164   -4.0073 H         1 UNK         0.0690 
     96 H96        29.5996   27.7109   -3.5192 H         1 UNK         0.0788 
     97 H97        29.2352   27.7665   -1.7983 H         1 UNK         0.0788 
     98 H98        28.3760   28.8160   -2.9219 H         1 UNK         0.0788 
     99 H99        29.0315   25.3527   -2.0661 H         1 UNK         0.2993 
    100 H100       27.9311   22.2229   -2.9734 H         1 UNK         0.0949 
    101 H101       29.3155   22.4689   -5.0423 H         1 UNK         0.0767 
    102 H102       30.5664   23.2973   -4.1257 H         1 UNK         0.0767 
    103 H103       30.1962   21.6037   -3.7954 H         1 UNK         0.0767 
    104 H104       30.3422   23.0206   -1.6779 H         1 UNK         0.3013 
    105 H105       28.3350   27.4557    1.1491 H         1 UNK         0.3121 
    106 H106       27.4945   30.1749    1.8034 H         1 UNK         0.0774 
    107 H107       29.7925   29.1032    0.0892 H         1 UNK         0.0815 
    108 H108       29.3074   30.7885    0.1990 H         1 UNK         0.0815 
    109 H109       28.1991   29.6093   -0.4829 H         1 UNK         0.0815 
    110 H110       27.8201   30.0000    4.1040 H         1 UNK         0.2987 
    111 H111       30.2666   29.5324    5.3841 H         1 UNK         0.0949 
    112 H112       27.8539   31.1526    6.3416 H         1 UNK         0.0806 
    113 H113       28.0661   29.4082    6.5023 H         1 UNK         0.0806 
    114 H114       29.1232   30.5062    7.3728 H         1 UNK         0.0806 
    115 H115       29.3243   32.3978    3.7091 H         1 UNK         0.3010 
    116 H116       30.7951   34.3618    5.1962 H         1 UNK         0.0829 
    117 H117       29.7815   34.3753    2.2967 H         1 UNK         0.0813 
    118 H118       28.8886   34.9529    3.7049 H         1 UNK         0.0813 
    119 H119       30.3434   35.7850    3.1831 H         1 UNK         0.0813 
    120 H120       32.7592   35.2759    4.8239 H         1 UNK         0.3038 
    121 H121       34.8480   35.6191    4.3093 H         1 UNK         0.0769 
    122 H122       34.3516   34.2569    1.6116 H         1 UNK         0.0811 
    123 H123       35.7384   35.2450    2.0346 H         1 UNK         0.0811 
    124 H124       34.1401   35.9689    1.9685 H         1 UNK         0.0811 
    125 H125       34.2216   32.2686    3.1137 H         1 UNK         0.3204 
    126 H126       35.9247   31.0800    5.0954 H         1 UNK         0.0748 
    127 H127       37.5904   30.0824    3.4785 H         1 UNK         0.0771 
    128 H128       36.9416   31.0871    2.1887 H         1 UNK         0.0771 
    129 H129       37.7578   31.8269    3.5646 H         1 UNK         0.0771 
    130 H130       35.4569   28.9083    5.2864 H         1 UNK         0.2980 
    131 H131       33.8271   27.5396    3.2720 H         1 UNK         0.0545 
    132 H132       36.6179   25.5447    5.0561 H         1 UNK         0.3459 
    133 H133       36.6602   27.2203    4.5771 H         1 UNK         0.3459 
    134 H134       32.7772   27.6581    6.1362 H         1 UNK         0.0616 
    135 H135       32.3624   28.8918    4.9861 H         1 UNK         0.0616 
    136 H136       31.7648   25.4753    6.2772 H         1 UNK         0.0634 
    137 H137       30.3059   26.4198    6.4865 H         1 UNK         0.0634 
@<TRIPOS>BOND
     1    1    2 1    
     2    1   72 1    
     3    1   73 1    
     4    1   74 1    
     5    2    3 2    
     6    2    4 am   BACKBONE|DICT|INTERRES
     7    4    5 1    
     8    4   75 1    
     9    5    6 1    
    10    5   35 1    
    11    5   76 1    
    12    6    7 1    
    13    6   77 1    
    14    6   78 1    
    15    7    8 1    
    16    8    9 1    
    17    8   79 1    
    18    8   80 1    
    19    9   10 ar   
    20    9   14 ar   
    21   10   11 ar   
    22   10   81 1    
    23   11   12 ar   
    24   11   71 1    
    25   12   13 ar   
    26   12   82 1    
    27   13   14 ar   
    28   13   15 1    
    29   14   83 1    
    30   15   16 1    
    31   15   84 1    
    32   15   85 1    
    33   16   17 1    
    34   17   18 1    
    35   17   86 1    
    36   17   87 1    
    37   18   19 1    
    38   18   37 1    
    39   18   88 1    
    40   19   20 am   BACKBONE|DICT|INTERRES
    41   19   89 1    
    42   20   21 2    
    43   20   22 1    
    44   22   23 1    
    45   22   24 1    
    46   22   90 1    
    47   23   91 1    
    48   23   92 1    
    49   23   93 1    
    50   24   25 am   BACKBONE|DICT|INTERRES
    51   24   94 1    
    52   25   26 2    
    53   25   27 1    
    54   27   28 1    
    55   27   29 1    
    56   27   95 1    
    57   28   96 1    
    58   28   97 1    
    59   28   98 1    
    60   29   30 am   BACKBONE|DICT|INTERRES
    61   29   99 1    
    62   30   31 2    
    63   30   32 1    
    64   32   33 1    
    65   32   34 1    
    66   32  100 1    
    67   33  101 1    
    68   33  102 1    
    69   33  103 1    
    70   34   35 am   BACKBONE|DICT|INTERRES
    71   34  104 1    
    72   35   36 2    
    73   37   38 2    
    74   37   39 am   BACKBONE|DICT|INTERRES
    75   39   40 1    
    76   39  105 1    
    77   40   41 1    
    78   40   42 1    
    79   40  106 1    
    80   41  107 1    
    81   41  108 1    
    82   41  109 1    
    83   42   43 2    
    84   42   44 am   BACKBONE|DICT|INTERRES
    85   44   45 1    
    86   44  110 1    
    87   45   46 1    
    88   45   47 1    
    89   45  111 1    
    90   46  112 1    
    91   46  113 1    
    92   46  114 1    
    93   47   48 2    
    94   47   49 am   BACKBONE|DICT|INTERRES
    95   49   50 1    
    96   49  115 1    
    97   50   51 1    
    98   50   52 1    
    99   50  116 1    
   100   51  117 1    
   101   51  118 1    
   102   51  119 1    
   103   52   53 2    
   104   52   54 am   BACKBONE|DICT|INTERRES
   105   54   55 1    
   106   54  120 1    
   107   55   56 1    
   108   55   57 1    
   109   55  121 1    
   110   56  122 1    
   111   56  123 1    
   112   56  124 1    
   113   57   58 2    
   114   57   59 am   BACKBONE|DICT|INTERRES
   115   59   60 1    
   116   59  125 1    
   117   60   61 1    
   118   60   62 1    
   119   60  126 1    
   120   61  127 1    
   121   61  128 1    
   122   61  129 1    
   123   62   63 2    
   124   62   64 am   BACKBONE|DICT|INTERRES
   125   64   65 1    
   126   64  130 1    
   127   65   66 1    
   128   65   69 1    
   129   65  131 1    
   130   66   67 am   BACKBONE|DICT|INTERRES
   131   66   68 2    
   132   67  132 1    
   133   67  133 1    
   134   69   70 1    
   135   69  134 1    
   136   69  135 1    
   137   70   71 1    
   138   71  136 1    
   139   71  137 1    
@<TRIPOS>SUBSTRUCTURE
     1 UNK         1 GROUP             0       ****    0 ROOT    
