@<TRIPOS>MOLECULE
3R136
137   139    1
SMALL
USER_CHARGES


@<TRIPOS>ATOM
      1 CA         23.6528   26.2434    2.7212 C.3       0 UNK        -0.1979 
      2 C          24.4369   24.9401    2.7036 C.2       0 UNK         0.4864 
      3 O          23.8823   23.9000    2.3458 O.2       0 UNK        -0.5359 
      4 N          25.7149   24.9846    3.0981 N.am      1 UNK        -0.4318 
      5 CA         26.6316   23.8407    3.0974 C.3       1 UNK         0.0824 
      6 C6         27.7846   24.0303    4.1193 C.3       12 UNK        -0.0944 
      7 S7         28.7555   25.5597    3.8834 S.3       12 UNK        -0.2672 
      8 C8         30.3844   24.9070    3.4031 C.3       12 UNK         0.0333 
      9 C9         31.0475   25.8377    2.4037 C.ar      12 UNK        -0.0807 
     10 C10        31.9448   26.8250    2.8188 C.ar      12 UNK        -0.0894 
     11 C11        32.5234   27.6905    1.8838 C.ar      12 UNK        -0.0804 
     12 C12        32.1778   27.5757    0.5322 C.ar      12 UNK        -0.0824 
     13 C13        31.2670   26.6023    0.1076 C.ar      12 UNK        -0.0762 
     14 C14        30.7304   25.7212    1.0507 C.ar      12 UNK        -0.0782 
     15 C15        30.8609   26.5260   -1.3652 C.3       12 UNK         0.0230 
     16 S16        29.0823   26.1875   -1.6430 S.3       12 UNK        -0.2608 
     17 C17        28.3042   27.3613   -0.4818 C.3       12 UNK        -0.0989 
     18 CA         26.8292   27.6888   -0.8112 C.3       5 UNK         0.0716 
     19 N          26.0011   26.4818   -0.8471 N.am      5 UNK        -0.4135 
     20 C          24.7637   26.4220   -1.3538 C.2       4 UNK         0.5031 
     21 O          24.1894   27.3856   -1.8673 O.2       4 UNK        -0.5229 
     22 CA         24.0647   25.0483   -1.2940 C.3       4 UNK         0.0329 
     23 CB         22.7040   25.0304   -2.0223 C.3       4 UNK        -0.2001 
     24 N          24.9158   23.9505   -1.7681 N.am      4 UNK        -0.4303 
     25 C          25.5142   23.8284   -2.9628 C.2       3 UNK         0.5044 
     26 O          25.4011   24.6504   -3.8740 O.2       3 UNK        -0.5152 
     27 CA         26.3894   22.5720   -3.1697 C.3       3 UNK         0.0319 
     28 CB         27.2133   22.6313   -4.4702 C.3       3 UNK        -0.2001 
     29 N          27.3033   22.3360   -2.0483 N.am      3 UNK        -0.4354 
     30 C          26.9762   21.7744   -0.8774 C.2       2 UNK         0.4964 
     31 O          25.8459   21.3543   -0.6227 O.2       2 UNK        -0.5047 
     32 CA         28.0659   21.6959    0.2108 C.3       2 UNK         0.0288 
     33 CB         29.4231   22.3047   -0.2087 C.3       2 UNK        -0.2113 
     34 N          27.6006   22.2796    1.4767 N.am      2 UNK        -0.4145 
     35 C          27.1356   23.5244    1.6714 C.2       1 UNK         0.5006 
     36 O          27.0935   24.3904    0.7916 O.2       1 UNK        -0.5103 
     37 C          26.2974   28.6970    0.2269 C.2       5 UNK         0.5055 
     38 O          25.6956   28.2973    1.2266 O.2       5 UNK        -0.5220 
     39 N          26.6070   29.9838    0.0127 N.am      6 UNK        -0.4450 
     40 CA         26.3849   31.0578    0.9899 C.3       6 UNK         0.0367 
     41 CB         26.5392   32.4189    0.2917 C.3       6 UNK        -0.1929 
     42 C          27.3236   30.9687    2.2120 C.2       6 UNK         0.5070 
     43 O          26.9721   31.4851    3.2735 O.2       6 UNK        -0.5237 
     44 N          28.4767   30.3039    2.0309 N.am      7 UNK        -0.4739 
     45 CA         29.5526   30.0437    2.9960 C.3       7 UNK         0.0276 
     46 CB         29.0137   29.3072    4.2413 C.3       7 UNK        -0.1927 
     47 C          30.3607   31.3010    3.3716 C.2       7 UNK         0.5013 
     48 O          30.0424   32.4127    2.9421 O.2       7 UNK        -0.5193 
     49 N          31.4217   31.0877    4.1557 N.am      8 UNK        -0.4253 
     50 CA         32.3470   32.0970    4.6586 C.3       8 UNK         0.0242 
     51 CB         33.2844   32.5848    3.5356 C.3       8 UNK        -0.2000 
     52 C          33.1594   31.4588    5.7882 C.2       8 UNK         0.4948 
     53 O          33.3834   30.2451    5.7624 O.2       8 UNK        -0.5275 
     54 N          33.6280   32.2866    6.7314 N.am      9 UNK        -0.4246 
     55 CA         34.4584   31.8669    7.8680 C.3       9 UNK         0.0261 
     56 CB         34.6137   33.0409    8.8483 C.3       9 UNK        -0.1959 
     57 C          35.8394   31.3215    7.4594 C.2       9 UNK         0.5033 
     58 O          36.4002   30.4957    8.1813 O.2       9 UNK        -0.5390 
     59 N          36.3457   31.7627    6.2982 N.am      10 UNK        -0.4215 
     60 CA         37.6098   31.3312    5.6934 C.3       10 UNK         0.0240 
     61 CB         37.8632   32.1559    4.4206 C.3       10 UNK        -0.1982 
     62 C          37.6819   29.8251    5.3772 C.2       10 UNK         0.4970 
     63 O          38.7850   29.2781    5.3429 O.2       10 UNK        -0.4916 
     64 N          36.5242   29.1843    5.1673 N.am      11 UNK        -0.4279 
     65 CA         36.4034   27.7305    4.9814 C.3       11 UNK         0.1003 
     66 C          36.4419   26.9200    6.3115 C.2       11 UNK         0.5709 
     67 N          36.4674   27.5432    7.4853 N.am      11 UNK        -0.7358 
     68 O          36.4642   25.6918    6.2778 O.2       11 UNK        -0.4999 
     69 C69        35.1620   27.3603    4.1288 C.3       12 UNK        -0.0954 
     70 S70        35.1954   28.1314    2.4731 S.3       12 UNK        -0.2268 
     71 C71        33.4993   28.7698    2.3300 C.3       12 UNK         0.0203 
     72 H72        24.2126   27.0454    3.2024 H         1 UNK         0.0888 
     73 H73        23.4214   26.5571    1.7038 H         1 UNK         0.0888 
     74 H74        22.7159   26.1139    3.2620 H         1 UNK         0.0888 
     75 H75        26.1402   25.8728    3.3246 H         1 UNK         0.3017 
     76 H76        26.0597   22.9690    3.4239 H         1 UNK         0.0873 
     77 H77        28.4431   23.1603    4.1279 H         1 UNK         0.0745 
     78 H78        27.3619   24.0727    5.1244 H         1 UNK         0.0745 
     79 H79        30.2820   23.9168    2.9564 H         1 UNK         0.0705 
     80 H80        31.0045   24.7850    4.2923 H         1 UNK         0.0705 
     81 H81        32.1850   26.9215    3.8681 H         1 UNK         0.1334 
     82 H82        32.6119   28.2551   -0.1888 H         1 UNK         0.1417 
     83 H83        30.0170   24.9721    0.7437 H         1 UNK         0.1562 
     84 H84        31.4467   25.7453   -1.8516 H         1 UNK         0.0748 
     85 H85        31.1088   27.4597   -1.8725 H         1 UNK         0.0748 
     86 H86        28.9059   28.2720   -0.4769 H         1 UNK         0.0940 
     87 H87        28.3716   26.9434    0.5250 H         1 UNK         0.0940 
     88 H88        26.7865   28.1536   -1.7986 H         1 UNK         0.0703 
     89 H89        26.3977   25.6609   -0.3937 H         1 UNK         0.3081 
     90 H90        23.8731   24.8497   -0.2400 H         1 UNK         0.0719 
     91 H91        22.0272   25.7763   -1.6036 H         1 UNK         0.0809 
     92 H92        22.8111   25.2483   -3.0855 H         1 UNK         0.0809 
     93 H93        22.2154   24.0609   -1.9257 H         1 UNK         0.0809 
     94 H94        25.0903   23.2088   -1.0981 H         1 UNK         0.2990 
     95 H95        25.7078   21.7224   -3.2501 H         1 UNK         0.0690 
     96 H96        27.7953   21.7208   -4.6138 H         1 UNK         0.0788 
     97 H97        27.9037   23.4760   -4.4707 H         1 UNK         0.0788 
     98 H98        26.5651   22.7379   -5.3411 H         1 UNK         0.0788 
     99 H99        28.2380   22.7051   -2.1496 H         1 UNK         0.2993 
    100 H100       28.2253   20.6337    0.4027 H         1 UNK         0.0949 
    101 H101       29.3220   23.3371   -0.5402 H         1 UNK         0.0767 
    102 H102       30.1358   22.2880    0.6161 H         1 UNK         0.0767 
    103 H103       29.8705   21.7389   -1.0269 H         1 UNK         0.0767 
    104 H104       27.5615   21.6338    2.2530 H         1 UNK         0.3013 
    105 H105       27.0860   30.2390   -0.8396 H         1 UNK         0.3121 
    106 H106       25.3597   30.9768    1.3581 H         1 UNK         0.0774 
    107 H107       26.3477   33.2363    0.9885 H         1 UNK         0.0815 
    108 H108       27.5462   32.5594   -0.1034 H         1 UNK         0.0815 
    109 H109       25.8339   32.5263   -0.5325 H         1 UNK         0.0815 
    110 H110       28.6586   29.9710    1.0967 H         1 UNK         0.2987 
    111 H111       30.2414   29.3701    2.4842 H         1 UNK         0.0949 
    112 H112       28.3391   28.4991    3.9600 H         1 UNK         0.0806 
    113 H113       29.8224   28.8608    4.8205 H         1 UNK         0.0806 
    114 H114       28.4678   29.9778    4.9058 H         1 UNK         0.0806 
    115 H115       31.6198   30.1565    4.5014 H         1 UNK         0.3010 
    116 H116       31.7727   32.9358    5.0578 H         1 UNK         0.0829 
    117 H117       32.7273   33.0382    2.7158 H         1 UNK         0.0813 
    118 H118       33.9790   33.3404    3.9040 H         1 UNK         0.0813 
    119 H119       33.8788   31.7686    3.1229 H         1 UNK         0.0813 
    120 H120       33.3999   33.2696    6.6762 H         1 UNK         0.3038 
    121 H121       33.9327   31.0595    8.3826 H         1 UNK         0.0769 
    122 H122       35.2063   32.7479    9.7164 H         1 UNK         0.0811 
    123 H123       33.6462   33.3794    9.2198 H         1 UNK         0.0811 
    124 H124       35.1140   33.8924    8.3853 H         1 UNK         0.0811 
    125 H125       35.8102   32.4460    5.7839 H         1 UNK         0.3204 
    126 H126       38.4052   31.5490    6.4092 H         1 UNK         0.0748 
    127 H127       38.8124   31.8798    3.9588 H         1 UNK         0.0771 
    128 H128       37.0814   31.9994    3.6759 H         1 UNK         0.0771 
    129 H129       37.9117   33.2227    4.6401 H         1 UNK         0.0771 
    130 H130       35.6541   29.6942    5.2369 H         1 UNK         0.2980 
    131 H131       37.2778   27.3956    4.4201 H         1 UNK         0.0545 
    132 H132       36.4987   26.9929    8.3285 H         1 UNK         0.3459 
    133 H133       36.4615   28.5549    7.5483 H         1 UNK         0.3459 
    134 H134       35.0976   26.2805    3.9831 H         1 UNK         0.0616 
    135 H135       34.2554   27.6530    4.6600 H         1 UNK         0.0616 
    136 H136       33.1862   29.1941    3.2821 H         1 UNK         0.0634 
    137 H137       33.4966   29.5953    1.6166 H         1 UNK         0.0634 
@<TRIPOS>BOND
     1    1    2 1    
     2    1   72 1    
     3    1   73 1    
     4    1   74 1    
     5    2    3 2    
     6    2    4 am   BACKBONE|DICT|INTERRES
     7    4    5 1    
     8    4   75 1    
     9    5    6 1    
    10    5   35 1    
    11    5   76 1    
    12    6    7 1    
    13    6   77 1    
    14    6   78 1    
    15    7    8 1    
    16    8    9 1    
    17    8   79 1    
    18    8   80 1    
    19    9   10 ar   
    20    9   14 ar   
    21   10   11 ar   
    22   10   81 1    
    23   11   12 ar   
    24   11   71 1    
    25   12   13 ar   
    26   12   82 1    
    27   13   14 ar   
    28   13   15 1    
    29   14   83 1    
    30   15   16 1    
    31   15   84 1    
    32   15   85 1    
    33   16   17 1    
    34   17   18 1    
    35   17   86 1    
    36   17   87 1    
    37   18   19 1    
    38   18   37 1    
    39   18   88 1    
    40   19   20 am   BACKBONE|DICT|INTERRES
    41   19   89 1    
    42   20   21 2    
    43   20   22 1    
    44   22   23 1    
    45   22   24 1    
    46   22   90 1    
    47   23   91 1    
    48   23   92 1    
    49   23   93 1    
    50   24   25 am   BACKBONE|DICT|INTERRES
    51   24   94 1    
    52   25   26 2    
    53   25   27 1    
    54   27   28 1    
    55   27   29 1    
    56   27   95 1    
    57   28   96 1    
    58   28   97 1    
    59   28   98 1    
    60   29   30 am   BACKBONE|DICT|INTERRES
    61   29   99 1    
    62   30   31 2    
    63   30   32 1    
    64   32   33 1    
    65   32   34 1    
    66   32  100 1    
    67   33  101 1    
    68   33  102 1    
    69   33  103 1    
    70   34   35 am   BACKBONE|DICT|INTERRES
    71   34  104 1    
    72   35   36 2    
    73   37   38 2    
    74   37   39 am   BACKBONE|DICT|INTERRES
    75   39   40 1    
    76   39  105 1    
    77   40   41 1    
    78   40   42 1    
    79   40  106 1    
    80   41  107 1    
    81   41  108 1    
    82   41  109 1    
    83   42   43 2    
    84   42   44 am   BACKBONE|DICT|INTERRES
    85   44   45 1    
    86   44  110 1    
    87   45   46 1    
    88   45   47 1    
    89   45  111 1    
    90   46  112 1    
    91   46  113 1    
    92   46  114 1    
    93   47   48 2    
    94   47   49 am   BACKBONE|DICT|INTERRES
    95   49   50 1    
    96   49  115 1    
    97   50   51 1    
    98   50   52 1    
    99   50  116 1    
   100   51  117 1    
   101   51  118 1    
   102   51  119 1    
   103   52   53 2    
   104   52   54 am   BACKBONE|DICT|INTERRES
   105   54   55 1    
   106   54  120 1    
   107   55   56 1    
   108   55   57 1    
   109   55  121 1    
   110   56  122 1    
   111   56  123 1    
   112   56  124 1    
   113   57   58 2    
   114   57   59 am   BACKBONE|DICT|INTERRES
   115   59   60 1    
   116   59  125 1    
   117   60   61 1    
   118   60   62 1    
   119   60  126 1    
   120   61  127 1    
   121   61  128 1    
   122   61  129 1    
   123   62   63 2    
   124   62   64 am   BACKBONE|DICT|INTERRES
   125   64   65 1    
   126   64  130 1    
   127   65   66 1    
   128   65   69 1    
   129   65  131 1    
   130   66   67 am   BACKBONE|DICT|INTERRES
   131   66   68 2    
   132   67  132 1    
   133   67  133 1    
   134   69   70 1    
   135   69  134 1    
   136   69  135 1    
   137   70   71 1    
   138   71  136 1    
   139   71  137 1    
@<TRIPOS>SUBSTRUCTURE
     1 UNK         1 GROUP             0       ****    0 ROOT    
