@<TRIPOS>MOLECULE
3R136
137   139    1
SMALL
USER_CHARGES


@<TRIPOS>ATOM
      1 CA         27.4345   23.2522   -1.4065 C.3       0 UNK        -0.1979 
      2 C          28.0140   23.7076   -0.0773 C.2       0 UNK         0.4864 
      3 O          27.9449   24.8969    0.2411 O.2       0 UNK        -0.5359 
      4 N          28.5709   22.7728    0.7078 N.am      1 UNK        -0.4318 
      5 CA         29.2597   23.0147    1.9857 C.3       1 UNK         0.0824 
      6 C6         29.8251   21.7178    2.6165 C.3       12 UNK        -0.0944 
      7 S7         30.8497   20.7309    1.4774 S.3       12 UNK        -0.2672 
      8 C8         32.5212   21.3684    1.8315 C.3       12 UNK         0.0333 
      9 C9         32.7824   22.7299    1.1969 C.ar      12 UNK        -0.0807 
     10 C10        33.3033   23.7809    1.9595 C.ar      12 UNK        -0.0894 
     11 C11        33.5968   25.0175    1.3677 C.ar      12 UNK        -0.0804 
     12 C12        33.3571   25.1919    0.0001 C.ar      12 UNK        -0.0824 
     13 C13        32.8468   24.1470   -0.7739 C.ar      12 UNK        -0.0762 
     14 C14        32.5614   22.9212   -0.1700 C.ar      12 UNK        -0.0782 
     15 C15        32.6519   24.3102   -2.2728 C.3       12 UNK         0.0230 
     16 S16        30.9270   24.7005   -2.6908 S.3       12 UNK        -0.2608 
     17 C17        30.9446   26.5240   -2.7159 C.3       12 UNK        -0.0989 
     18 CA         29.7314   27.1167   -1.9533 C.3       5 UNK         0.0716 
     19 N          29.7810   26.8927   -0.5040 N.am      5 UNK        -0.4135 
     20 C          30.6207   27.4660    0.3727 C.2       4 UNK         0.5031 
     21 O          31.5728   28.1749    0.0467 O.2       4 UNK        -0.5229 
     22 CA         30.3196   27.2224    1.8667 C.3       4 UNK         0.0329 
     23 CB         30.9698   28.2633    2.7982 C.3       4 UNK        -0.2001 
     24 N          28.8825   27.1110    2.1478 N.am      4 UNK        -0.4303 
     25 C          27.9295   28.0278    1.9120 C.2       3 UNK         0.5044 
     26 O          28.1670   29.1793    1.5432 O.2       3 UNK        -0.5152 
     27 CA         26.4625   27.5964    2.0853 C.3       3 UNK         0.0319 
     28 CB         25.6758   27.8390    0.7853 C.3       3 UNK        -0.2001 
     29 N          26.3509   26.1796    2.4378 N.am      3 UNK        -0.4354 
     30 C          25.9915   25.7084    3.6399 C.2       2 UNK         0.4964 
     31 O          25.6159   26.4182    4.5720 O.2       2 UNK        -0.5047 
     32 CA         26.0809   24.1847    3.8540 C.3       2 UNK         0.0288 
     33 CB         24.7077   23.5309    3.6297 C.3       2 UNK        -0.2113 
     34 N          27.0745   23.5169    3.0061 N.am      2 UNK        -0.4145 
     35 C          28.3953   23.7546    3.0265 C.2       1 UNK         0.5006 
     36 O          28.9308   24.5575    3.7900 O.2       1 UNK        -0.5103 
     37 C          29.4653   28.6044   -2.2783 C.2       5 UNK         0.5055 
     38 O          30.1875   29.2082   -3.0742 O.2       5 UNK        -0.5220 
     39 N          28.4181   29.1531   -1.6417 N.am      6 UNK        -0.4450 
     40 CA         27.9551   30.5433   -1.7122 C.3       6 UNK         0.0367 
     41 CB         27.4720   30.9031   -3.1340 C.3       6 UNK        -0.1929 
     42 C          28.9921   31.5332   -1.1488 C.2       6 UNK         0.5070 
     43 O          29.3183   32.5299   -1.7960 O.2       6 UNK        -0.5237 
     44 N          29.4731   31.2429    0.0651 N.am      7 UNK        -0.4739 
     45 CA         30.3946   32.0803    0.8331 C.3       7 UNK         0.0276 
     46 CB         31.8220   31.5081    0.7594 C.3       7 UNK        -0.1927 
     47 C          29.8698   32.2331    2.2680 C.2       7 UNK         0.5013 
     48 O          30.6106   32.0205    3.2292 O.2       7 UNK        -0.5193 
     49 N          28.5777   32.5803    2.3761 N.am      8 UNK        -0.4253 
     50 CA         27.8446   32.9540    3.5947 C.3       8 UNK         0.0242 
     51 CB         28.3187   34.3407    4.0809 C.3       8 UNK        -0.2000 
     52 C          27.8688   31.9047    4.7263 C.2       8 UNK         0.4948 
     53 O          27.7458   32.2780    5.8943 O.2       8 UNK        -0.5275 
     54 N          28.0278   30.6203    4.3683 N.am      9 UNK        -0.4246 
     55 CA         28.1611   29.4723    5.2768 C.3       9 UNK         0.0261 
     56 CB         26.8392   29.2107    6.0299 C.3       9 UNK        -0.1959 
     57 C          29.3833   29.5670    6.2155 C.2       9 UNK         0.5033 
     58 O          29.3113   29.1097    7.3587 O.2       9 UNK        -0.5390 
     59 N          30.4817   30.1544    5.7171 N.am      10 UNK        -0.4215 
     60 CA         31.7787   30.2321    6.3920 C.3       10 UNK         0.0240 
     61 CB         32.5170   31.4911    5.8899 C.3       10 UNK        -0.1982 
     62 C          32.5875   28.9243    6.2215 C.2       10 UNK         0.4970 
     63 O          32.0067   27.8384    6.2428 O.2       10 UNK        -0.4916 
     64 N          33.9127   29.0581    6.0752 N.am      11 UNK        -0.4279 
     65 CA         34.9168   27.9900    5.9334 C.3       11 UNK         0.1003 
     66 C          34.9135   26.9214    7.0711 C.2       11 UNK         0.5709 
     67 N          35.4192   25.7190    6.8288 N.am      11 UNK        -0.7358 
     68 O          34.5261   27.2006    8.2048 O.2       11 UNK        -0.4999 
     69 C69        35.0448   27.4583    4.4716 C.3       12 UNK        -0.0954 
     70 S70        33.7811   26.2685    3.9028 S.3       12 UNK        -0.2268 
     71 C71        34.2614   26.1509    2.1476 C.3       12 UNK         0.0203 
     72 H72        26.3669   23.4663   -1.4425 H         1 UNK         0.0888 
     73 H73        27.9173   23.7855   -2.2248 H         1 UNK         0.0888 
     74 H74        27.5751   22.1838   -1.5683 H         1 UNK         0.0888 
     75 H75        28.6059   21.8162    0.3841 H         1 UNK         0.3017 
     76 H76        30.1012   23.6724    1.7582 H         1 UNK         0.0873 
     77 H77        30.4120   21.9500    3.5076 H         1 UNK         0.0745 
     78 H78        29.0102   21.0744    2.9547 H         1 UNK         0.0745 
     79 H79        32.6783   21.3980    2.9108 H         1 UNK         0.0705 
     80 H80        33.2514   20.6607    1.4369 H         1 UNK         0.0705 
     81 H81        33.5086   23.6237    3.0092 H         1 UNK         0.1334 
     82 H82        33.5936   26.1371   -0.4702 H         1 UNK         0.1417 
     83 H83        32.1776   22.1071   -0.7700 H         1 UNK         0.1562 
     84 H84        32.9258   23.3809   -2.7747 H         1 UNK         0.0748 
     85 H85        33.3229   25.0713   -2.6739 H         1 UNK         0.0748 
     86 H86        30.9266   26.8209   -3.7663 H         1 UNK         0.0940 
     87 H87        31.8802   26.9104   -2.3093 H         1 UNK         0.0940 
     88 H88        28.8411   26.5904   -2.3024 H         1 UNK         0.0703 
     89 H89        29.0680   26.2610   -0.1415 H         1 UNK         0.3081 
     90 H90        30.7592   26.2520    2.1028 H         1 UNK         0.0719 
     91 H91        32.0412   28.3487    2.6178 H         1 UNK         0.0809 
     92 H92        30.5397   29.2547    2.6706 H         1 UNK         0.0809 
     93 H93        30.8436   27.9719    3.8393 H         1 UNK         0.0809 
     94 H94        28.5907   26.2112    2.5093 H         1 UNK         0.2990 
     95 H95        26.0348   28.2254    2.8684 H         1 UNK         0.0690 
     96 H96        24.6265   27.5690    0.9057 H         1 UNK         0.0788 
     97 H97        26.0763   27.2550   -0.0445 H         1 UNK         0.0788 
     98 H98        25.7040   28.8902    0.4954 H         1 UNK         0.0788 
     99 H99        26.6600   25.5251    1.7257 H         1 UNK         0.2993 
    100 H100       26.3739   24.0235    4.8938 H         1 UNK         0.0949 
    101 H101       23.9491   23.9877    4.2672 H         1 UNK         0.0767 
    102 H102       24.3731   23.6382    2.5969 H         1 UNK         0.0767 
    103 H103       24.7298   22.4673    3.8683 H         1 UNK         0.0767 
    104 H104       26.7234   22.8478    2.3361 H         1 UNK         0.3013 
    105 H105       27.9312   28.5763   -0.9713 H         1 UNK         0.3121 
    106 H106       27.0893   30.6079   -1.0512 H         1 UNK         0.0774 
    107 H107       28.2911   30.9132   -3.8535 H         1 UNK         0.0815 
    108 H108       27.0171   31.8943   -3.1500 H         1 UNK         0.0815 
    109 H109       26.7214   30.1972   -3.4890 H         1 UNK         0.0815 
    110 H110       29.1137   30.4194    0.5467 H         1 UNK         0.2987 
    111 H111       30.4198   33.0891    0.4152 H         1 UNK         0.0949 
    112 H112       31.8908   30.5267    1.2250 H         1 UNK         0.0806 
    113 H113       32.1557   31.4091   -0.2735 H         1 UNK         0.0806 
    114 H114       32.5307   32.1603    1.2709 H         1 UNK         0.0806 
    115 H115       28.0553   32.6675    1.5152 H         1 UNK         0.3010 
    116 H116       26.7977   33.0473    3.3021 H         1 UNK         0.0829 
    117 H117       27.6962   34.7083    4.8976 H         1 UNK         0.0813 
    118 H118       29.3469   34.3079    4.4439 H         1 UNK         0.0813 
    119 H119       28.2682   35.0810    3.2826 H         1 UNK         0.0813 
    120 H120       28.1266   30.4168    3.3801 H         1 UNK         0.3038 
    121 H121       28.3504   28.6008    4.6517 H         1 UNK         0.0769 
    122 H122       26.6208   29.9957    6.7543 H         1 UNK         0.0811 
    123 H123       26.8824   28.2675    6.5759 H         1 UNK         0.0811 
    124 H124       25.9965   29.1430    5.3422 H         1 UNK         0.0811 
    125 H125       30.4411   30.5550    4.7859 H         1 UNK         0.3204 
    126 H126       31.6056   30.3569    7.4628 H         1 UNK         0.0748 
    127 H127       33.4122   31.6959    6.4780 H         1 UNK         0.0771 
    128 H128       32.8131   31.3975    4.8437 H         1 UNK         0.0771 
    129 H129       31.8824   32.3744    5.9702 H         1 UNK         0.0771 
    130 H130       34.2893   29.9937    6.1011 H         1 UNK         0.2980 
    131 H131       35.8511   28.5204    6.1201 H         1 UNK         0.0545 
    132 H132       35.4446   25.0372    7.5703 H         1 UNK         0.3459 
    133 H133       35.7302   25.4708    5.9030 H         1 UNK         0.3459 
    134 H134       35.0443   28.3039    3.7820 H         1 UNK         0.0616 
    135 H135       36.0202   26.9865    4.3437 H         1 UNK         0.0616 
    136 H136       34.0436   27.1095    1.6736 H         1 UNK         0.0634 
    137 H137       35.3412   26.0106    2.0859 H         1 UNK         0.0634 
@<TRIPOS>BOND
     1    1    2 1    
     2    1   72 1    
     3    1   73 1    
     4    1   74 1    
     5    2    3 2    
     6    2    4 am   BACKBONE|DICT|INTERRES
     7    4    5 1    
     8    4   75 1    
     9    5    6 1    
    10    5   35 1    
    11    5   76 1    
    12    6    7 1    
    13    6   77 1    
    14    6   78 1    
    15    7    8 1    
    16    8    9 1    
    17    8   79 1    
    18    8   80 1    
    19    9   10 ar   
    20    9   14 ar   
    21   10   11 ar   
    22   10   81 1    
    23   11   12 ar   
    24   11   71 1    
    25   12   13 ar   
    26   12   82 1    
    27   13   14 ar   
    28   13   15 1    
    29   14   83 1    
    30   15   16 1    
    31   15   84 1    
    32   15   85 1    
    33   16   17 1    
    34   17   18 1    
    35   17   86 1    
    36   17   87 1    
    37   18   19 1    
    38   18   37 1    
    39   18   88 1    
    40   19   20 am   BACKBONE|DICT|INTERRES
    41   19   89 1    
    42   20   21 2    
    43   20   22 1    
    44   22   23 1    
    45   22   24 1    
    46   22   90 1    
    47   23   91 1    
    48   23   92 1    
    49   23   93 1    
    50   24   25 am   BACKBONE|DICT|INTERRES
    51   24   94 1    
    52   25   26 2    
    53   25   27 1    
    54   27   28 1    
    55   27   29 1    
    56   27   95 1    
    57   28   96 1    
    58   28   97 1    
    59   28   98 1    
    60   29   30 am   BACKBONE|DICT|INTERRES
    61   29   99 1    
    62   30   31 2    
    63   30   32 1    
    64   32   33 1    
    65   32   34 1    
    66   32  100 1    
    67   33  101 1    
    68   33  102 1    
    69   33  103 1    
    70   34   35 am   BACKBONE|DICT|INTERRES
    71   34  104 1    
    72   35   36 2    
    73   37   38 2    
    74   37   39 am   BACKBONE|DICT|INTERRES
    75   39   40 1    
    76   39  105 1    
    77   40   41 1    
    78   40   42 1    
    79   40  106 1    
    80   41  107 1    
    81   41  108 1    
    82   41  109 1    
    83   42   43 2    
    84   42   44 am   BACKBONE|DICT|INTERRES
    85   44   45 1    
    86   44  110 1    
    87   45   46 1    
    88   45   47 1    
    89   45  111 1    
    90   46  112 1    
    91   46  113 1    
    92   46  114 1    
    93   47   48 2    
    94   47   49 am   BACKBONE|DICT|INTERRES
    95   49   50 1    
    96   49  115 1    
    97   50   51 1    
    98   50   52 1    
    99   50  116 1    
   100   51  117 1    
   101   51  118 1    
   102   51  119 1    
   103   52   53 2    
   104   52   54 am   BACKBONE|DICT|INTERRES
   105   54   55 1    
   106   54  120 1    
   107   55   56 1    
   108   55   57 1    
   109   55  121 1    
   110   56  122 1    
   111   56  123 1    
   112   56  124 1    
   113   57   58 2    
   114   57   59 am   BACKBONE|DICT|INTERRES
   115   59   60 1    
   116   59  125 1    
   117   60   61 1    
   118   60   62 1    
   119   60  126 1    
   120   61  127 1    
   121   61  128 1    
   122   61  129 1    
   123   62   63 2    
   124   62   64 am   BACKBONE|DICT|INTERRES
   125   64   65 1    
   126   64  130 1    
   127   65   66 1    
   128   65   69 1    
   129   65  131 1    
   130   66   67 am   BACKBONE|DICT|INTERRES
   131   66   68 2    
   132   67  132 1    
   133   67  133 1    
   134   69   70 1    
   135   69  134 1    
   136   69  135 1    
   137   70   71 1    
   138   71  136 1    
   139   71  137 1    
@<TRIPOS>SUBSTRUCTURE
     1 UNK         1 GROUP             0       ****    0 ROOT    
