@<TRIPOS>MOLECULE
3R136
137   139    1
SMALL
USER_CHARGES


@<TRIPOS>ATOM
      1 CA         25.1149   19.7554    0.9591 C.3       0 UNK        -0.1979 
      2 C          25.7828   20.9811    0.3539 C.2       0 UNK         0.4864 
      3 O          25.2138   21.6107   -0.5380 O.2       0 UNK        -0.5359 
      4 N          26.9839   21.3278    0.8352 N.am      1 UNK        -0.4318 
      5 CA         27.7735   22.4788    0.3790 C.3       1 UNK         0.0824 
      6 C6         29.2895   22.2614    0.6108 C.3       12 UNK        -0.0944 
      7 S7         29.7502   21.9608    2.3533 S.3       12 UNK        -0.2672 
      8 C8         31.5029   21.4971    2.1804 C.3       12 UNK         0.0333 
      9 C9         32.3814   22.6965    1.8508 C.ar      12 UNK        -0.0807 
     10 C10        32.9657   23.4453    2.8770 C.ar      12 UNK        -0.0894 
     11 C11        33.7805   24.5422    2.5802 C.ar      12 UNK        -0.0804 
     12 C12        34.0037   24.8935    1.2450 C.ar      12 UNK        -0.0824 
     13 C13        33.4291   24.1493    0.2097 C.ar      12 UNK        -0.0762 
     14 C14        32.6274   23.0465    0.5198 C.ar      12 UNK        -0.0782 
     15 C15        33.6988   24.5146   -1.2446 C.3       12 UNK         0.0230 
     16 S16        32.9162   26.0847   -1.7367 S.3       12 UNK        -0.2608 
     17 C17        31.1377   25.6883   -1.6219 C.3       12 UNK        -0.0989 
     18 CA         30.2851   26.9091   -1.1958 C.3       5 UNK         0.0716 
     19 N          28.8556   26.6859   -1.4052 N.am      5 UNK        -0.4135 
     20 C          28.1682   27.0438   -2.4943 C.2       4 UNK         0.5031 
     21 O          28.6766   27.5297   -3.5055 O.2       4 UNK        -0.5229 
     22 CA         26.6439   26.8406   -2.4387 C.3       4 UNK         0.0329 
     23 CB         26.2750   25.4038   -2.8421 C.3       4 UNK        -0.2001 
     24 N          26.0709   27.1359   -1.1223 N.am      4 UNK        -0.4303 
     25 C          26.0489   28.3367   -0.5281 C.2       3 UNK         0.5044 
     26 O          26.4867   29.3604   -1.0530 O.2       3 UNK        -0.5152 
     27 CA         25.4565   28.4292    0.8935 C.3       3 UNK         0.0319 
     28 CB         23.9611   28.7978    0.8503 C.3       3 UNK        -0.2001 
     29 N          25.7033   27.2576    1.7493 N.am      3 UNK        -0.4354 
     30 C          25.2326   26.0104    1.6157 C.2       2 UNK         0.4964 
     31 O          24.4464   25.6548    0.7355 O.2       2 UNK        -0.5047 
     32 CA         25.7799   24.9659    2.6009 C.3       2 UNK         0.0288 
     33 CB         24.6742   24.4903    3.5570 C.3       2 UNK        -0.2113 
     34 N          26.3577   23.8051    1.9166 N.am      2 UNK        -0.4145 
     35 C          27.3010   23.8300    0.9606 C.2       1 UNK         0.5006 
     36 O          27.8238   24.8666    0.5407 O.2       1 UNK        -0.5103 
     37 C          30.5208   27.3344    0.2634 C.2       5 UNK         0.5055 
     38 O          31.1888   28.3424    0.5020 O.2       5 UNK        -0.5220 
     39 N          29.9214   26.6066    1.2162 N.am      6 UNK        -0.4450 
     40 CA         29.9553   26.9180    2.6423 C.3       6 UNK         0.0367 
     41 CB         29.7939   25.6202    3.4522 C.3       6 UNK        -0.1929 
     42 C          28.8943   27.9749    2.9844 C.2       6 UNK         0.5070 
     43 O          27.8835   27.6667    3.6191 O.2       6 UNK        -0.5237 
     44 N          29.1245   29.2018    2.5102 N.am      7 UNK        -0.4739 
     45 CA         28.3791   30.3991    2.8944 C.3       7 UNK         0.0276 
     46 CB         28.4048   31.3948    1.7228 C.3       7 UNK        -0.1927 
     47 C          28.9741   31.0135    4.1737 C.2       7 UNK         0.5013 
     48 O          30.0707   30.6288    4.5943 O.2       7 UNK        -0.5193 
     49 N          28.2371   31.9630    4.7672 N.am      8 UNK        -0.4253 
     50 CA         28.5772   32.6669    6.0083 C.3       8 UNK         0.0242 
     51 CB         27.4937   33.7168    6.3098 C.3       8 UNK        -0.2000 
     52 C          29.9750   33.3109    5.9628 C.2       8 UNK         0.4948 
     53 O          30.1758   34.2795    5.2277 O.2       8 UNK        -0.5275 
     54 N          30.9074   32.7241    6.7272 N.am      9 UNK        -0.4246 
     55 CA         32.3288   33.0743    6.8382 C.3       9 UNK         0.0261 
     56 CB         32.5031   34.4868    7.4385 C.3       9 UNK        -0.1959 
     57 C          33.1466   32.8774    5.5425 C.2       9 UNK         0.5033 
     58 O          34.2343   33.4478    5.4347 O.2       9 UNK        -0.5390 
     59 N          32.6480   32.0713    4.5910 N.am      10 UNK        -0.4215 
     60 CA         33.3696   31.7324    3.3589 C.3       10 UNK         0.0240 
     61 CB         32.3856   31.2290    2.2927 C.3       10 UNK        -0.1982 
     62 C          34.4795   30.6977    3.6015 C.2       10 UNK         0.4970 
     63 O          35.5523   30.8116    3.0071 O.2       10 UNK        -0.4916 
     64 N          34.2030   29.7159    4.4682 N.am      11 UNK        -0.4279 
     65 CA         35.1626   28.6943    4.9052 C.3       11 UNK         0.1003 
     66 C          36.2045   29.2764    5.8971 C.2       11 UNK         0.5709 
     67 N          37.4536   28.8389    5.8154 N.am      11 UNK        -0.7358 
     68 O          35.8814   30.0864    6.7645 O.2       11 UNK        -0.4999 
     69 C69        34.4452   27.4648    5.5183 C.3       12 UNK        -0.0954 
     70 S70        33.3427   26.6413    4.3228 S.3       12 UNK        -0.2268 
     71 C71        34.4378   25.3323    3.7011 C.3       12 UNK         0.0203 
     72 H72        24.1558   20.0287    1.3983 H         1 UNK         0.0888 
     73 H73        24.9356   19.0071    0.1875 H         1 UNK         0.0888 
     74 H74        25.7269   19.2994    1.7372 H         1 UNK         0.0888 
     75 H75        27.4110   20.7780    1.5686 H         1 UNK         0.3017 
     76 H76        27.6324   22.5668   -0.7006 H         1 UNK         0.0873 
     77 H77        29.6246   21.4100    0.0164 H         1 UNK         0.0745 
     78 H78        29.8525   23.1191    0.2425 H         1 UNK         0.0745 
     79 H79        31.6062   20.7256    1.4159 H         1 UNK         0.0705 
     80 H80        31.8365   21.0421    3.1143 H         1 UNK         0.0705 
     81 H81        32.7851   23.1756    3.9088 H         1 UNK         0.1334 
     82 H82        34.6289   25.7440    1.0087 H         1 UNK         0.1417 
     83 H83        32.1904   22.4593   -0.2763 H         1 UNK         0.1562 
     84 H84        33.3607   23.7237   -1.9160 H         1 UNK         0.0748 
     85 H85        34.7760   24.5991   -1.3946 H         1 UNK         0.0748 
     86 H86        30.9747   24.8519   -0.9428 H         1 UNK         0.0940 
     87 H87        30.8201   25.3403   -2.6062 H         1 UNK         0.0940 
     88 H88        30.5866   27.7606   -1.8107 H         1 UNK         0.0703 
     89 H89        28.3458   26.2515   -0.6411 H         1 UNK         0.3081 
     90 H90        26.1922   27.5262   -3.1586 H         1 UNK         0.0719 
     91 H91        25.1940   25.2701   -2.8875 H         1 UNK         0.0809 
     92 H92        26.6728   25.1606   -3.8284 H         1 UNK         0.0809 
     93 H93        26.6726   24.6706   -2.1394 H         1 UNK         0.0809 
     94 H94        25.6378   26.3664   -0.6206 H         1 UNK         0.2990 
     95 H95        25.9753   29.2540    1.3818 H         1 UNK         0.0690 
     96 H96        23.3655   28.0380    0.3436 H         1 UNK         0.0788 
     97 H97        23.8089   29.7356    0.3143 H         1 UNK         0.0788 
     98 H98        23.5559   28.9287    1.8536 H         1 UNK         0.0788 
     99 H99        26.3850   27.4162    2.4896 H         1 UNK         0.2993 
    100 H100       26.5697   25.4210    3.1986 H         1 UNK         0.0949 
    101 H101       23.8672   23.9878    3.0216 H         1 UNK         0.0767 
    102 H102       25.0644   23.7991    4.3044 H         1 UNK         0.0767 
    103 H103       24.2350   25.3322    4.0941 H         1 UNK         0.0767 
    104 H104       25.9874   22.9037    2.1763 H         1 UNK         0.3013 
    105 H105       29.3221   25.8290    0.9525 H         1 UNK         0.3121 
    106 H106       30.9280   27.3441    2.8933 H         1 UNK         0.0774 
    107 H107       29.8094   25.8246    4.5233 H         1 UNK         0.0815 
    108 H108       28.8607   25.1071    3.2283 H         1 UNK         0.0815 
    109 H109       30.6085   24.9279    3.2446 H         1 UNK         0.0815 
    110 H110       29.9707   29.3423    1.9699 H         1 UNK         0.2987 
    111 H111       27.3418   30.1319    3.1057 H         1 UNK         0.0949 
    112 H112       29.4183   31.7080    1.4757 H         1 UNK         0.0806 
    113 H113       27.9669   30.9576    0.8250 H         1 UNK         0.0806 
    114 H114       27.8327   32.2946    1.9518 H         1 UNK         0.0806 
    115 H115       27.3657   32.2318    4.3340 H         1 UNK         0.3010 
    116 H116       28.5576   31.9291    6.8133 H         1 UNK         0.0829 
    117 H117       27.7188   34.2554    7.2314 H         1 UNK         0.0813 
    118 H118       27.4146   34.4568    5.5122 H         1 UNK         0.0813 
    119 H119       26.5148   33.2544    6.4379 H         1 UNK         0.0813 
    120 H120       30.6289   31.9081    7.2556 H         1 UNK         0.3038 
    121 H121       32.7502   32.3664    7.5535 H         1 UNK         0.0769 
    122 H122       33.5485   34.6857    7.6781 H         1 UNK         0.0811 
    123 H123       31.9357   34.5991    8.3623 H         1 UNK         0.0811 
    124 H124       32.1768   35.2639    6.7468 H         1 UNK         0.0811 
    125 H125       31.7392   31.6350    4.7298 H         1 UNK         0.3204 
    126 H126       33.8401   32.6395    2.9729 H         1 UNK         0.0748 
    127 H127       32.9014   31.0071    1.3574 H         1 UNK         0.0771 
    128 H128       31.8798   30.3153    2.6059 H         1 UNK         0.0771 
    129 H129       31.6296   31.9820    2.0750 H         1 UNK         0.0771 
    130 H130       33.3022   29.7028    4.9208 H         1 UNK         0.2980 
    131 H131       35.7036   28.3531    4.0200 H         1 UNK         0.0545 
    132 H132       37.7275   28.1665    5.1160 H         1 UNK         0.3459 
    133 H133       38.1395   29.1949    6.4627 H         1 UNK         0.3459 
    134 H134       35.1702   26.7369    5.8877 H         1 UNK         0.0616 
    135 H135       33.8484   27.7620    6.3826 H         1 UNK         0.0616 
    136 H136       35.3694   25.7782    3.3493 H         1 UNK         0.0634 
    137 H137       34.7043   24.6641    4.5215 H         1 UNK         0.0634 
@<TRIPOS>BOND
     1    1    2 1    
     2    1   72 1    
     3    1   73 1    
     4    1   74 1    
     5    2    3 2    
     6    2    4 am   BACKBONE|DICT|INTERRES
     7    4    5 1    
     8    4   75 1    
     9    5    6 1    
    10    5   35 1    
    11    5   76 1    
    12    6    7 1    
    13    6   77 1    
    14    6   78 1    
    15    7    8 1    
    16    8    9 1    
    17    8   79 1    
    18    8   80 1    
    19    9   10 ar   
    20    9   14 ar   
    21   10   11 ar   
    22   10   81 1    
    23   11   12 ar   
    24   11   71 1    
    25   12   13 ar   
    26   12   82 1    
    27   13   14 ar   
    28   13   15 1    
    29   14   83 1    
    30   15   16 1    
    31   15   84 1    
    32   15   85 1    
    33   16   17 1    
    34   17   18 1    
    35   17   86 1    
    36   17   87 1    
    37   18   19 1    
    38   18   37 1    
    39   18   88 1    
    40   19   20 am   BACKBONE|DICT|INTERRES
    41   19   89 1    
    42   20   21 2    
    43   20   22 1    
    44   22   23 1    
    45   22   24 1    
    46   22   90 1    
    47   23   91 1    
    48   23   92 1    
    49   23   93 1    
    50   24   25 am   BACKBONE|DICT|INTERRES
    51   24   94 1    
    52   25   26 2    
    53   25   27 1    
    54   27   28 1    
    55   27   29 1    
    56   27   95 1    
    57   28   96 1    
    58   28   97 1    
    59   28   98 1    
    60   29   30 am   BACKBONE|DICT|INTERRES
    61   29   99 1    
    62   30   31 2    
    63   30   32 1    
    64   32   33 1    
    65   32   34 1    
    66   32  100 1    
    67   33  101 1    
    68   33  102 1    
    69   33  103 1    
    70   34   35 am   BACKBONE|DICT|INTERRES
    71   34  104 1    
    72   35   36 2    
    73   37   38 2    
    74   37   39 am   BACKBONE|DICT|INTERRES
    75   39   40 1    
    76   39  105 1    
    77   40   41 1    
    78   40   42 1    
    79   40  106 1    
    80   41  107 1    
    81   41  108 1    
    82   41  109 1    
    83   42   43 2    
    84   42   44 am   BACKBONE|DICT|INTERRES
    85   44   45 1    
    86   44  110 1    
    87   45   46 1    
    88   45   47 1    
    89   45  111 1    
    90   46  112 1    
    91   46  113 1    
    92   46  114 1    
    93   47   48 2    
    94   47   49 am   BACKBONE|DICT|INTERRES
    95   49   50 1    
    96   49  115 1    
    97   50   51 1    
    98   50   52 1    
    99   50  116 1    
   100   51  117 1    
   101   51  118 1    
   102   51  119 1    
   103   52   53 2    
   104   52   54 am   BACKBONE|DICT|INTERRES
   105   54   55 1    
   106   54  120 1    
   107   55   56 1    
   108   55   57 1    
   109   55  121 1    
   110   56  122 1    
   111   56  123 1    
   112   56  124 1    
   113   57   58 2    
   114   57   59 am   BACKBONE|DICT|INTERRES
   115   59   60 1    
   116   59  125 1    
   117   60   61 1    
   118   60   62 1    
   119   60  126 1    
   120   61  127 1    
   121   61  128 1    
   122   61  129 1    
   123   62   63 2    
   124   62   64 am   BACKBONE|DICT|INTERRES
   125   64   65 1    
   126   64  130 1    
   127   65   66 1    
   128   65   69 1    
   129   65  131 1    
   130   66   67 am   BACKBONE|DICT|INTERRES
   131   66   68 2    
   132   67  132 1    
   133   67  133 1    
   134   69   70 1    
   135   69  134 1    
   136   69  135 1    
   137   70   71 1    
   138   71  136 1    
   139   71  137 1    
@<TRIPOS>SUBSTRUCTURE
     1 UNK         1 GROUP             0       ****    0 ROOT    
