@<TRIPOS>MOLECULE
3R136
137   139    1
SMALL
USER_CHARGES


@<TRIPOS>ATOM
      1 CA         29.0455   21.7660    7.0972 C.3       0 UNK        -0.1979 
      2 C          29.3311   22.3679    5.7290 C.2       0 UNK         0.4864 
      3 O          30.4276   22.8803    5.5084 O.2       0 UNK        -0.5359 
      4 N          28.3533   22.3027    4.8147 N.am      1 UNK        -0.4318 
      5 CA         28.3941   22.8609    3.4594 C.3       1 UNK         0.0824 
      6 C6         29.4512   22.1755    2.5478 C.3       12 UNK        -0.0944 
      7 S7         29.0650   22.3899    0.7759 S.3       12 UNK        -0.2672 
      8 C8         30.7042   22.2263    0.0022 C.3       12 UNK         0.0333 
      9 C9         31.6103   23.4060    0.3228 C.ar      12 UNK        -0.0807 
     10 C10        32.6548   23.2619    1.2395 C.ar      12 UNK        -0.0894 
     11 C11        33.4831   24.3441    1.5487 C.ar      12 UNK        -0.0804 
     12 C12        33.2758   25.5715    0.9131 C.ar      12 UNK        -0.0824 
     13 C13        32.2486   25.7260   -0.0232 C.ar      12 UNK        -0.0762 
     14 C14        31.4119   24.6391   -0.3050 C.ar      12 UNK        -0.0782 
     15 C15        32.0190   27.0955   -0.6532 C.3       12 UNK         0.0230 
     16 S16        31.4535   27.0528   -2.3900 S.3       12 UNK        -0.2608 
     17 C17        30.5522   28.6405   -2.4665 C.3       12 UNK        -0.0989 
     18 CA         29.0373   28.5112   -2.8089 C.3       5 UNK         0.0716 
     19 N          28.3651   27.3633   -2.1928 N.am      5 UNK        -0.4135 
     20 C          27.4194   26.6266   -2.7948 C.2       4 UNK         0.5031 
     21 O          27.1083   26.7425   -3.9813 O.2       4 UNK        -0.5229 
     22 CA         26.6681   25.5923   -1.9329 C.3       4 UNK         0.0329 
     23 CB         27.3516   24.2189   -2.0210 C.3       4 UNK        -0.2001 
     24 N          26.5466   25.9860   -0.5276 N.am      4 UNK        -0.4303 
     25 C          25.8722   27.0579   -0.0852 C.2       3 UNK         0.5044 
     26 O          25.1635   27.7636   -0.8031 O.2       3 UNK        -0.5152 
     27 CA         26.0364   27.4359    1.3995 C.3       3 UNK         0.0319 
     28 CB         24.8041   27.0005    2.2070 C.3       3 UNK        -0.2001 
     29 N          27.2412   26.9144    2.0558 N.am      3 UNK        -0.4354 
     30 C          28.5122   27.0809    1.6662 C.2       2 UNK         0.4964 
     31 O          28.8391   27.6484    0.6241 O.2       2 UNK        -0.5047 
     32 CA         29.5966   26.4639    2.5620 C.3       2 UNK         0.0288 
     33 CB         29.7554   27.2553    3.8735 C.3       2 UNK        -0.2113 
     34 N          29.4043   25.0243    2.7934 N.am      2 UNK        -0.4145 
     35 C          28.4450   24.4063    3.5012 C.2       1 UNK         0.5006 
     36 O          27.5730   25.0052    4.1364 O.2       1 UNK        -0.5103 
     37 C          28.2718   29.7764   -2.3829 C.2       5 UNK         0.5055 
     38 O          27.7316   30.4873   -3.2312 O.2       5 UNK        -0.5220 
     39 N          28.2312   29.9963   -1.0626 N.am      6 UNK        -0.4450 
     40 CA         27.6015   31.0845   -0.3222 C.3       6 UNK         0.0367 
     41 CB         28.0894   32.4696   -0.7941 C.3       6 UNK        -0.1929 
     42 C          28.0069   30.8716    1.1381 C.2       6 UNK         0.5070 
     43 O          29.1691   30.5496    1.3933 O.2       6 UNK        -0.5237 
     44 N          27.0742   31.0711    2.0789 N.am      7 UNK        -0.4739 
     45 CA         27.2766   30.8175    3.5156 C.3       7 UNK         0.0276 
     46 CB         25.9687   31.0925    4.2729 C.3       7 UNK        -0.1927 
     47 C          28.4461   31.6007    4.1440 C.2       7 UNK         0.5013 
     48 O          29.0732   31.1086    5.0830 O.2       7 UNK        -0.5193 
     49 N          28.7615   32.7665    3.5614 N.am      8 UNK        -0.4253 
     50 CA         29.9207   33.6074    3.8704 C.3       8 UNK         0.0242 
     51 CB         29.8410   34.8910    3.0275 C.3       8 UNK        -0.2000 
     52 C          31.2888   32.9213    3.6745 C.2       8 UNK         0.4948 
     53 O          32.2725   33.4041    4.2367 O.2       8 UNK        -0.5275 
     54 N          31.3430   31.8129    2.9160 N.am      9 UNK        -0.4246 
     55 CA         32.5317   30.9656    2.7744 C.3       9 UNK         0.0261 
     56 CB         32.3054   29.9440    1.6473 C.3       9 UNK        -0.1959 
     57 C          32.9241   30.2400    4.0756 C.2       9 UNK         0.5033 
     58 O          34.0941   29.8829    4.2235 O.2       9 UNK        -0.5390 
     59 N          31.9545   30.0318    4.9826 N.am      10 UNK        -0.4215 
     60 CA         32.0420   29.4205    6.3171 C.3       10 UNK         0.0240 
     61 CB         32.9376   30.2543    7.2535 C.3       10 UNK        -0.1982 
     62 C          32.4481   27.9350    6.3468 C.2       10 UNK         0.4970 
     63 O          31.7951   27.1583    7.0444 O.2       10 UNK        -0.4916 
     64 N          33.5083   27.5715    5.6154 N.am      11 UNK        -0.4279 
     65 CA         34.1291   26.2413    5.4850 C.3       11 UNK         0.1003 
     66 C          34.7667   25.6794    6.7929 C.2       11 UNK         0.5709 
     67 N          34.1336   25.8159    7.9495 N.am      11 UNK        -0.7358 
     68 O          35.8712   25.1416    6.7605 O.2       11 UNK        -0.4999 
     69 C69        33.1865   25.2260    4.7797 C.3       12 UNK        -0.0954 
     70 S70        34.0238   23.7065    4.2098 S.3       12 UNK        -0.2268 
     71 C71        34.6152   24.1813    2.5537 C.3       12 UNK         0.0203 
     72 H72        29.7631   20.9757    7.3160 H         1 UNK         0.0888 
     73 H73        29.1348   22.5307    7.8683 H         1 UNK         0.0888 
     74 H74        28.0438   21.3404    7.1558 H         1 UNK         0.0888 
     75 H75        27.4680   21.8929    5.0784 H         1 UNK         0.3017 
     76 H76        27.4133   22.6248    3.0428 H         1 UNK         0.0873 
     77 H77        30.4593   22.5198    2.7809 H         1 UNK         0.0745 
     78 H78        29.4596   21.1013    2.7391 H         1 UNK         0.0745 
     79 H79        30.5763   22.1548   -1.0789 H         1 UNK         0.0705 
     80 H80        31.1598   21.2863    0.3179 H         1 UNK         0.0705 
     81 H81        32.8190   22.3099    1.7262 H         1 UNK         0.1334 
     82 H82        33.9139   26.4115    1.1524 H         1 UNK         0.1417 
     83 H83        30.6001   24.7518   -1.0092 H         1 UNK         0.1562 
     84 H84        32.9322   27.6913   -0.6138 H         1 UNK         0.0748 
     85 H85        31.2896   27.6163   -0.0368 H         1 UNK         0.0748 
     86 H86        31.0377   29.2603   -3.2224 H         1 UNK         0.0940 
     87 H87        30.7108   29.1763   -1.5290 H         1 UNK         0.0940 
     88 H88        28.9638   28.4275   -3.8954 H         1 UNK         0.0703 
     89 H89        28.5364   27.2324   -1.2003 H         1 UNK         0.3081 
     90 H90        25.6584   25.4981   -2.3383 H         1 UNK         0.0719 
     91 H91        27.4170   23.8820   -3.0565 H         1 UNK         0.0809 
     92 H92        26.7960   23.4603   -1.4693 H         1 UNK         0.0809 
     93 H93        28.3662   24.2467   -1.6244 H         1 UNK         0.0809 
     94 H94        27.0908   25.4617    0.1411 H         1 UNK         0.2990 
     95 H95        26.0972   28.5236    1.4394 H         1 UNK         0.0690 
     96 H96        24.8509   27.3701    3.2317 H         1 UNK         0.0788 
     97 H97        24.7117   25.9143    2.2454 H         1 UNK         0.0788 
     98 H98        23.8864   27.3920    1.7655 H         1 UNK         0.0788 
     99 H99        27.0989   26.3815    2.9104 H         1 UNK         0.2993 
    100 H100       30.5396   26.5518    2.0241 H         1 UNK         0.0949 
    101 H101       30.0288   28.2909    3.6698 H         1 UNK         0.0767 
    102 H102       28.8388   27.2770    4.4629 H         1 UNK         0.0767 
    103 H103       30.5370   26.8220    4.4948 H         1 UNK         0.0767 
    104 H104       30.0412   24.4272    2.2816 H         1 UNK         0.3013 
    105 H105       28.6969   29.3325   -0.4458 H         1 UNK         0.3121 
    106 H106       26.5182   31.0040   -0.4275 H         1 UNK         0.0774 
    107 H107       29.1773   32.5440   -0.7637 H         1 UNK         0.0815 
    108 H108       27.6904   33.2616   -0.1592 H         1 UNK         0.0815 
    109 H109       27.7665   32.6891   -1.8112 H         1 UNK         0.0815 
    110 H110       26.1486   31.3625    1.7969 H         1 UNK         0.2987 
    111 H111       27.5154   29.7569    3.6244 H         1 UNK         0.0949 
    112 H112       25.6520   32.1310    4.1689 H         1 UNK         0.0806 
    113 H113       25.1604   30.4551    3.9136 H         1 UNK         0.0806 
    114 H114       26.0856   30.8923    5.3391 H         1 UNK         0.0806 
    115 H115       28.1854   33.0640    2.7879 H         1 UNK         0.3010 
    116 H116       29.8506   33.8821    4.9250 H         1 UNK         0.0829 
    117 H117       28.9218   35.4423    3.2269 H         1 UNK         0.0813 
    118 H118       30.6721   35.5605    3.2544 H         1 UNK         0.0813 
    119 H119       29.8800   34.6745    1.9590 H         1 UNK         0.0813 
    120 H120       30.4982   31.4811    2.4556 H         1 UNK         0.3038 
    121 H121       33.3687   31.6073    2.4913 H         1 UNK         0.0769 
    122 H122       31.4890   29.2599    1.8809 H         1 UNK         0.0811 
    123 H123       33.1991   29.3409    1.4821 H         1 UNK         0.0811 
    124 H124       32.0666   30.4371    0.7048 H         1 UNK         0.0811 
    125 H125       31.0278   30.3762    4.7515 H         1 UNK         0.3204 
    126 H126       31.0269   29.4677    6.7155 H         1 UNK         0.0748 
    127 H127       32.5917   31.2864    7.3139 H         1 UNK         0.0771 
    128 H128       32.9271   29.8489    8.2662 H         1 UNK         0.0771 
    129 H129       33.9760   30.2691    6.9210 H         1 UNK         0.0771 
    130 H130       33.9629   28.3186    5.0929 H         1 UNK         0.2980 
    131 H131       34.9648   26.4155    4.8061 H         1 UNK         0.0545 
    132 H132       34.5467   25.4652    8.7986 H         1 UNK         0.3459 
    133 H133       33.2145   26.2449    7.9549 H         1 UNK         0.3459 
    134 H134       32.3750   24.9343    5.4483 H         1 UNK         0.0616 
    135 H135       32.7058   25.6950    3.9203 H         1 UNK         0.0616 
    136 H136       35.2056   25.0952    2.6345 H         1 UNK         0.0634 
    137 H137       35.2949   23.4085    2.1926 H         1 UNK         0.0634 
@<TRIPOS>BOND
     1    1    2 1    
     2    1   72 1    
     3    1   73 1    
     4    1   74 1    
     5    2    3 2    
     6    2    4 am   BACKBONE|DICT|INTERRES
     7    4    5 1    
     8    4   75 1    
     9    5    6 1    
    10    5   35 1    
    11    5   76 1    
    12    6    7 1    
    13    6   77 1    
    14    6   78 1    
    15    7    8 1    
    16    8    9 1    
    17    8   79 1    
    18    8   80 1    
    19    9   10 ar   
    20    9   14 ar   
    21   10   11 ar   
    22   10   81 1    
    23   11   12 ar   
    24   11   71 1    
    25   12   13 ar   
    26   12   82 1    
    27   13   14 ar   
    28   13   15 1    
    29   14   83 1    
    30   15   16 1    
    31   15   84 1    
    32   15   85 1    
    33   16   17 1    
    34   17   18 1    
    35   17   86 1    
    36   17   87 1    
    37   18   19 1    
    38   18   37 1    
    39   18   88 1    
    40   19   20 am   BACKBONE|DICT|INTERRES
    41   19   89 1    
    42   20   21 2    
    43   20   22 1    
    44   22   23 1    
    45   22   24 1    
    46   22   90 1    
    47   23   91 1    
    48   23   92 1    
    49   23   93 1    
    50   24   25 am   BACKBONE|DICT|INTERRES
    51   24   94 1    
    52   25   26 2    
    53   25   27 1    
    54   27   28 1    
    55   27   29 1    
    56   27   95 1    
    57   28   96 1    
    58   28   97 1    
    59   28   98 1    
    60   29   30 am   BACKBONE|DICT|INTERRES
    61   29   99 1    
    62   30   31 2    
    63   30   32 1    
    64   32   33 1    
    65   32   34 1    
    66   32  100 1    
    67   33  101 1    
    68   33  102 1    
    69   33  103 1    
    70   34   35 am   BACKBONE|DICT|INTERRES
    71   34  104 1    
    72   35   36 2    
    73   37   38 2    
    74   37   39 am   BACKBONE|DICT|INTERRES
    75   39   40 1    
    76   39  105 1    
    77   40   41 1    
    78   40   42 1    
    79   40  106 1    
    80   41  107 1    
    81   41  108 1    
    82   41  109 1    
    83   42   43 2    
    84   42   44 am   BACKBONE|DICT|INTERRES
    85   44   45 1    
    86   44  110 1    
    87   45   46 1    
    88   45   47 1    
    89   45  111 1    
    90   46  112 1    
    91   46  113 1    
    92   46  114 1    
    93   47   48 2    
    94   47   49 am   BACKBONE|DICT|INTERRES
    95   49   50 1    
    96   49  115 1    
    97   50   51 1    
    98   50   52 1    
    99   50  116 1    
   100   51  117 1    
   101   51  118 1    
   102   51  119 1    
   103   52   53 2    
   104   52   54 am   BACKBONE|DICT|INTERRES
   105   54   55 1    
   106   54  120 1    
   107   55   56 1    
   108   55   57 1    
   109   55  121 1    
   110   56  122 1    
   111   56  123 1    
   112   56  124 1    
   113   57   58 2    
   114   57   59 am   BACKBONE|DICT|INTERRES
   115   59   60 1    
   116   59  125 1    
   117   60   61 1    
   118   60   62 1    
   119   60  126 1    
   120   61  127 1    
   121   61  128 1    
   122   61  129 1    
   123   62   63 2    
   124   62   64 am   BACKBONE|DICT|INTERRES
   125   64   65 1    
   126   64  130 1    
   127   65   66 1    
   128   65   69 1    
   129   65  131 1    
   130   66   67 am   BACKBONE|DICT|INTERRES
   131   66   68 2    
   132   67  132 1    
   133   67  133 1    
   134   69   70 1    
   135   69  134 1    
   136   69  135 1    
   137   70   71 1    
   138   71  136 1    
   139   71  137 1    
@<TRIPOS>SUBSTRUCTURE
     1 UNK         1 GROUP             0       ****    0 ROOT    
