@<TRIPOS>MOLECULE
3R136
137   139    1
SMALL
USER_CHARGES


@<TRIPOS>ATOM
      1 CA         26.7532   22.7112   -3.2777 C.3       0 UNK        -0.1979 
      2 C          27.6542   23.4237   -2.2813 C.2       0 UNK         0.4864 
      3 O          27.5355   24.6369   -2.1116 O.2       0 UNK        -0.5359 
      4 N          28.5454   22.6811   -1.6090 N.am      1 UNK        -0.4318 
      5 CA         29.4991   23.1985   -0.6191 C.3       1 UNK         0.0824 
      6 C6         30.5049   22.1015   -0.1884 C.3       12 UNK        -0.0944 
      7 S7         31.9160   22.7522    0.7704 S.3       12 UNK        -0.2672 
      8 C8         31.5966   22.0278    2.4097 C.3       12 UNK         0.0333 
      9 C9         32.0188   22.9749    3.5205 C.ar      12 UNK        -0.0807 
     10 C10        33.3615   23.0718    3.8960 C.ar      12 UNK        -0.0894 
     11 C11        33.7558   23.9424    4.9204 C.ar      12 UNK        -0.0804 
     12 C12        32.7803   24.6969    5.5830 C.ar      12 UNK        -0.0824 
     13 C13        31.4328   24.6025    5.2216 C.ar      12 UNK        -0.0762 
     14 C14        31.0596   23.7423    4.1858 C.ar      12 UNK        -0.0782 
     15 C15        30.3749   25.4009    5.9729 C.3       12 UNK         0.0230 
     16 S16        30.2105   27.1008    5.3447 S.3       12 UNK        -0.2608 
     17 C17        29.4572   26.8115    3.7107 C.3       12 UNK        -0.0989 
     18 CA         29.3151   28.0896    2.8497 C.3       5 UNK         0.0716 
     19 N          29.0031   27.7519    1.4578 N.am      5 UNK        -0.4135 
     20 C          28.9209   28.6249    0.4441 C.2       4 UNK         0.5031 
     21 O          29.1507   29.8281    0.5519 O.2       4 UNK        -0.5229 
     22 CA         28.4476   28.0739   -0.9116 C.3       4 UNK         0.0329 
     23 CB         29.5973   27.3744   -1.6531 C.3       4 UNK        -0.2001 
     24 N          27.3068   27.1631   -0.7833 N.am      4 UNK        -0.4303 
     25 C          26.1103   27.5099   -0.2860 C.2       3 UNK         0.5044 
     26 O          25.8184   28.6523    0.0626 O.2       3 UNK        -0.5152 
     27 CA         25.0837   26.3851   -0.0852 C.3       3 UNK         0.0319 
     28 CB         24.3817   26.0290   -1.4053 C.3       3 UNK        -0.2001 
     29 N          25.6890   25.1895    0.5040 N.am      3 UNK        -0.4354 
     30 C          26.1814   25.1290    1.7504 C.2       2 UNK         0.4964 
     31 O          26.1382   26.0635    2.5513 O.2       2 UNK        -0.5047 
     32 CA         26.8816   23.8192    2.1544 C.3       2 UNK         0.0288 
     33 CB         25.8558   22.7703    2.6113 C.3       2 UNK        -0.2113 
     34 N          27.7135   23.2620    1.0826 N.am      2 UNK        -0.4145 
     35 C          28.7984   23.8728    0.5820 C.2       1 UNK         0.5006 
     36 O          29.2155   24.9537    0.9982 O.2       1 UNK        -0.5103 
     37 C          28.3034   29.0899    3.4488 C.2       5 UNK         0.5055 
     38 O          28.7156   30.0583    4.0890 O.2       5 UNK        -0.5220 
     39 N          27.0047   28.8543    3.2100 N.am      6 UNK        -0.4450 
     40 CA         25.9182   29.7400    3.6306 C.3       6 UNK         0.0367 
     41 CB         24.5711   29.0214    3.4519 C.3       6 UNK        -0.1929 
     42 C          25.9192   31.0910    2.8921 C.2       6 UNK         0.5070 
     43 O          25.6895   32.1218    3.5254 O.2       6 UNK        -0.5237 
     44 N          26.1561   31.0647    1.5734 N.am      7 UNK        -0.4739 
     45 CA         26.1621   32.2456    0.7074 C.3       7 UNK         0.0276 
     46 CB         26.0658   31.8057   -0.7627 C.3       7 UNK        -0.1927 
     47 C          27.3847   33.1530    0.9182 C.2       7 UNK         0.5013 
     48 O          27.2198   34.3725    0.9815 O.2       7 UNK        -0.5193 
     49 N          28.5777   32.5512    0.9955 N.am      8 UNK        -0.4253 
     50 CA         29.8561   33.2381    1.1567 C.3       8 UNK         0.0242 
     51 CB         30.8322   32.7658    0.0584 C.3       8 UNK        -0.2000 
     52 C          30.3711   33.0171    2.5861 C.2       8 UNK         0.4948 
     53 O          29.9145   33.7078    3.4988 O.2       8 UNK        -0.5275 
     54 N          31.3219   32.0930    2.7595 N.am      9 UNK        -0.4246 
     55 CA         31.9771   31.7672    4.0220 C.3       9 UNK         0.0261 
     56 CB         33.0680   32.8129    4.3303 C.3       9 UNK        -0.1959 
     57 C          32.5693   30.3557    3.9261 C.2       9 UNK         0.5033 
     58 O          32.6217   29.7859    2.8317 O.2       9 UNK        -0.5390 
     59 N          33.0080   29.8291    5.0764 N.am      10 UNK        -0.4215 
     60 CA         33.6133   28.5050    5.2356 C.3       10 UNK         0.0240 
     61 CB         33.8632   28.2492    6.7317 C.3       10 UNK        -0.1982 
     62 C          34.9103   28.3111    4.4338 C.2       10 UNK         0.4970 
     63 O          35.6521   29.2704    4.2077 O.2       10 UNK        -0.4916 
     64 N          35.1524   27.0532    4.0492 N.am      11 UNK        -0.4279 
     65 CA         36.3333   26.5844    3.3165 C.3       11 UNK         0.1003 
     66 C          37.6867   26.8277    4.0476 C.2       11 UNK         0.5709 
     67 N          38.7836   26.9000    3.3053 N.am      11 UNK        -0.7358 
     68 O          37.7569   26.9195    5.2724 O.2       11 UNK        -0.4999 
     69 C69        36.1335   25.1135    2.8487 C.3       12 UNK        -0.0954 
     70 S70        36.4654   23.7877    4.0689 S.3       12 UNK        -0.2268 
     71 C71        35.2121   24.0461    5.3746 C.3       12 UNK         0.0203 
     72 H72        25.7076   22.8548   -3.0066 H         1 UNK         0.0888 
     73 H73        26.9052   23.1198   -4.2762 H         1 UNK         0.0888 
     74 H74        26.9512   21.6402   -3.3148 H         1 UNK         0.0888 
     75 H75        28.5973   21.6893   -1.7948 H         1 UNK         0.3017 
     76 H76        30.0667   23.9825   -1.1252 H         1 UNK         0.0873 
     77 H77        30.9260   21.6272   -1.0764 H         1 UNK         0.0745 
     78 H78        30.0016   21.3017    0.3577 H         1 UNK         0.0745 
     79 H79        32.1347   21.0827    2.4963 H         1 UNK         0.0705 
     80 H80        30.5380   21.7880    2.5194 H         1 UNK         0.0705 
     81 H81        34.0956   22.4642    3.3853 H         1 UNK         0.1334 
     82 H82        33.0629   25.3485    6.3980 H         1 UNK         0.1417 
     83 H83        30.0193   23.6654    3.9005 H         1 UNK         0.1562 
     84 H84        30.6356   25.4443    7.0314 H         1 UNK         0.0748 
     85 H85        29.4065   24.9006    5.9217 H         1 UNK         0.0748 
     86 H86        28.4951   26.3142    3.8420 H         1 UNK         0.0940 
     87 H87        30.0980   26.1063    3.1817 H         1 UNK         0.0940 
     88 H88        30.2848   28.5879    2.8289 H         1 UNK         0.0703 
     89 H89        28.8657   26.7639    1.2563 H         1 UNK         0.3081 
     90 H90        28.1217   28.9220   -1.5171 H         1 UNK         0.0719 
     91 H91        29.2818   27.0304   -2.6383 H         1 UNK         0.0809 
     92 H92        30.4372   28.0550   -1.7991 H         1 UNK         0.0809 
     93 H93        29.9695   26.5107   -1.1021 H         1 UNK         0.0809 
     94 H94        27.4420   26.2058   -1.1037 H         1 UNK         0.2990 
     95 H95        24.3249   26.7512    0.6099 H         1 UNK         0.0690 
     96 H96        23.8949   26.9065   -1.8333 H         1 UNK         0.0788 
     97 H97        23.6103   25.2739   -1.2531 H         1 UNK         0.0788 
     98 H98        25.0799   25.6501   -2.1518 H         1 UNK         0.0788 
     99 H99        25.8070   24.3926   -0.1038 H         1 UNK         0.2993 
    100 H100       27.5346   24.0467    2.9997 H         1 UNK         0.0949 
    101 H101       25.1870   22.4758    1.8015 H         1 UNK         0.0767 
    102 H102       26.3474   21.8718    2.9852 H         1 UNK         0.0767 
    103 H103       25.2362   23.1590    3.4210 H         1 UNK         0.0767 
    104 H104       27.4226   22.3823    0.6813 H         1 UNK         0.3013 
    105 H105       26.7408   28.0066    2.7173 H         1 UNK         0.3121 
    106 H106       26.0510   29.9463    4.6948 H         1 UNK         0.0774 
    107 H107       24.3841   28.7658    2.4085 H         1 UNK         0.0815 
    108 H108       23.7458   29.6509    3.7870 H         1 UNK         0.0815 
    109 H109       24.5336   28.0995    4.0325 H         1 UNK         0.0815 
    110 H110       26.2665   30.1629    1.1149 H         1 UNK         0.2987 
    111 H111       25.2725   32.8356    0.9392 H         1 UNK         0.0949 
    112 H112       26.9076   31.1747   -1.0506 H         1 UNK         0.0806 
    113 H113       25.1501   31.2440   -0.9483 H         1 UNK         0.0806 
    114 H114       26.0586   32.6681   -1.4305 H         1 UNK         0.0806 
    115 H115       28.6250   31.5344    0.9397 H         1 UNK         0.3010 
    116 H116       29.7292   34.3158    1.0342 H         1 UNK         0.0829 
    117 H117       30.4626   33.0371   -0.9306 H         1 UNK         0.0813 
    118 H118       31.8101   33.2353    0.1737 H         1 UNK         0.0813 
    119 H119       30.9790   31.6855    0.0647 H         1 UNK         0.0813 
    120 H120       31.5996   31.4989    1.9872 H         1 UNK         0.3038 
    121 H121       31.2286   31.7647    4.8177 H         1 UNK         0.0769 
    122 H122       33.8334   32.8326    3.5534 H         1 UNK         0.0811 
    123 H123       33.5685   32.6005    5.2755 H         1 UNK         0.0811 
    124 H124       32.6484   33.8157    4.4108 H         1 UNK         0.0811 
    125 H125       32.9430   30.3895    5.9133 H         1 UNK         0.3204 
    126 H126       32.8936   27.7733    4.8686 H         1 UNK         0.0748 
    127 H127       34.3531   27.2888    6.8958 H         1 UNK         0.0771 
    128 H128       34.5066   29.0145    7.1678 H         1 UNK         0.0771 
    129 H129       32.9278   28.2342    7.2920 H         1 UNK         0.0771 
    130 H130       34.4885   26.3346    4.2946 H         1 UNK         0.2980 
    131 H131       36.3637   27.1998    2.4152 H         1 UNK         0.0545 
    132 H132       39.6721   27.0439    3.7591 H         1 UNK         0.3459 
    133 H133       38.7427   26.8107    2.3020 H         1 UNK         0.3459 
    134 H134       35.1281   24.9755    2.4473 H         1 UNK         0.0616 
    135 H135       36.7991   24.9241    2.0052 H         1 UNK         0.0616 
    136 H136       35.4013   25.0079    5.8527 H         1 UNK         0.0634 
    137 H137       35.3752   23.2933    6.1466 H         1 UNK         0.0634 
@<TRIPOS>BOND
     1    1    2 1    
     2    1   72 1    
     3    1   73 1    
     4    1   74 1    
     5    2    3 2    
     6    2    4 am   BACKBONE|DICT|INTERRES
     7    4    5 1    
     8    4   75 1    
     9    5    6 1    
    10    5   35 1    
    11    5   76 1    
    12    6    7 1    
    13    6   77 1    
    14    6   78 1    
    15    7    8 1    
    16    8    9 1    
    17    8   79 1    
    18    8   80 1    
    19    9   10 ar   
    20    9   14 ar   
    21   10   11 ar   
    22   10   81 1    
    23   11   12 ar   
    24   11   71 1    
    25   12   13 ar   
    26   12   82 1    
    27   13   14 ar   
    28   13   15 1    
    29   14   83 1    
    30   15   16 1    
    31   15   84 1    
    32   15   85 1    
    33   16   17 1    
    34   17   18 1    
    35   17   86 1    
    36   17   87 1    
    37   18   19 1    
    38   18   37 1    
    39   18   88 1    
    40   19   20 am   BACKBONE|DICT|INTERRES
    41   19   89 1    
    42   20   21 2    
    43   20   22 1    
    44   22   23 1    
    45   22   24 1    
    46   22   90 1    
    47   23   91 1    
    48   23   92 1    
    49   23   93 1    
    50   24   25 am   BACKBONE|DICT|INTERRES
    51   24   94 1    
    52   25   26 2    
    53   25   27 1    
    54   27   28 1    
    55   27   29 1    
    56   27   95 1    
    57   28   96 1    
    58   28   97 1    
    59   28   98 1    
    60   29   30 am   BACKBONE|DICT|INTERRES
    61   29   99 1    
    62   30   31 2    
    63   30   32 1    
    64   32   33 1    
    65   32   34 1    
    66   32  100 1    
    67   33  101 1    
    68   33  102 1    
    69   33  103 1    
    70   34   35 am   BACKBONE|DICT|INTERRES
    71   34  104 1    
    72   35   36 2    
    73   37   38 2    
    74   37   39 am   BACKBONE|DICT|INTERRES
    75   39   40 1    
    76   39  105 1    
    77   40   41 1    
    78   40   42 1    
    79   40  106 1    
    80   41  107 1    
    81   41  108 1    
    82   41  109 1    
    83   42   43 2    
    84   42   44 am   BACKBONE|DICT|INTERRES
    85   44   45 1    
    86   44  110 1    
    87   45   46 1    
    88   45   47 1    
    89   45  111 1    
    90   46  112 1    
    91   46  113 1    
    92   46  114 1    
    93   47   48 2    
    94   47   49 am   BACKBONE|DICT|INTERRES
    95   49   50 1    
    96   49  115 1    
    97   50   51 1    
    98   50   52 1    
    99   50  116 1    
   100   51  117 1    
   101   51  118 1    
   102   51  119 1    
   103   52   53 2    
   104   52   54 am   BACKBONE|DICT|INTERRES
   105   54   55 1    
   106   54  120 1    
   107   55   56 1    
   108   55   57 1    
   109   55  121 1    
   110   56  122 1    
   111   56  123 1    
   112   56  124 1    
   113   57   58 2    
   114   57   59 am   BACKBONE|DICT|INTERRES
   115   59   60 1    
   116   59  125 1    
   117   60   61 1    
   118   60   62 1    
   119   60  126 1    
   120   61  127 1    
   121   61  128 1    
   122   61  129 1    
   123   62   63 2    
   124   62   64 am   BACKBONE|DICT|INTERRES
   125   64   65 1    
   126   64  130 1    
   127   65   66 1    
   128   65   69 1    
   129   65  131 1    
   130   66   67 am   BACKBONE|DICT|INTERRES
   131   66   68 2    
   132   67  132 1    
   133   67  133 1    
   134   69   70 1    
   135   69  134 1    
   136   69  135 1    
   137   70   71 1    
   138   71  136 1    
   139   71  137 1    
@<TRIPOS>SUBSTRUCTURE
     1 UNK         1 GROUP             0       ****    0 ROOT    
