@<TRIPOS>MOLECULE
3R136
137   139    1
SMALL
USER_CHARGES


@<TRIPOS>ATOM
      1 CA         26.3623   19.0995    3.2061 C.3       0 UNK        -0.1979 
      2 C          26.6298   20.5510    2.8359 C.2       0 UNK         0.4864 
      3 O          25.9477   21.4418    3.3440 O.2       0 UNK        -0.5359 
      4 N          27.6121   20.7843    1.9512 N.am      1 UNK        -0.4318 
      5 CA         28.0641   22.1002    1.4642 C.3       1 UNK         0.0824 
      6 C6         28.7247   22.9784    2.5639 C.3       12 UNK        -0.0944 
      7 S7         29.9766   22.1052    3.5710 S.3       12 UNK        -0.2672 
      8 C8         31.4295   22.0616    2.4731 C.3       12 UNK         0.0333 
      9 C9         31.9840   23.4489    2.1861 C.ar      12 UNK        -0.0807 
     10 C10        32.6255   24.1730    3.1951 C.ar      12 UNK        -0.0894 
     11 C11        33.1486   25.4416    2.9331 C.ar      12 UNK        -0.0804 
     12 C12        33.0018   25.9932    1.6562 C.ar      12 UNK        -0.0824 
     13 C13        32.3611   25.2826    0.6338 C.ar      12 UNK        -0.0762 
     14 C14        31.8760   23.9974    0.9049 C.ar      12 UNK        -0.0782 
     15 C15        32.2559   25.9290   -0.7503 C.3       12 UNK         0.0230 
     16 S16        30.9426   25.3024   -1.8653 S.3       12 UNK        -0.2608 
     17 C17        29.3919   25.4020   -0.9035 C.3       12 UNK        -0.0989 
     18 CA         28.8766   26.8374   -0.6202 C.3       5 UNK         0.0716 
     19 N          27.4136   26.8833   -0.5488 N.am      5 UNK        -0.4135 
     20 C          26.6896   28.0123   -0.5696 C.2       4 UNK         0.5031 
     21 O          27.1764   29.1354   -0.7160 O.2       4 UNK        -0.5229 
     22 CA         25.1649   27.8510   -0.4096 C.3       4 UNK         0.0329 
     23 CB         24.3895   29.1656   -0.6446 C.3       4 UNK        -0.2001 
     24 N          24.6132   26.7718   -1.2369 N.am      4 UNK        -0.4303 
     25 C          24.6839   26.6438   -2.5727 C.2       3 UNK         0.5044 
     26 O          25.2282   27.4589   -3.3193 O.2       3 UNK        -0.5152 
     27 CA         24.0152   25.3858   -3.1648 C.3       3 UNK         0.0319 
     28 CB         24.5192   25.0398   -4.5831 C.3       3 UNK        -0.2001 
     29 N          24.0962   24.2237   -2.2678 N.am      3 UNK        -0.4354 
     30 C          25.2064   23.5851   -1.8678 C.2       2 UNK         0.4964 
     31 O          26.3406   23.8346   -2.2802 O.2       2 UNK        -0.5047 
     32 CA         24.9809   22.4679   -0.8343 C.3       2 UNK         0.0288 
     33 CB         24.3941   21.2176   -1.5133 C.3       2 UNK        -0.2113 
     34 N          26.1812   22.0706   -0.0950 N.am      2 UNK        -0.4145 
     35 C          26.9504   22.8463    0.6860 C.2       1 UNK         0.5006 
     36 O          26.7974   24.0654    0.8218 O.2       1 UNK        -0.5103 
     37 C          29.4906   27.4158    0.6686 C.2       5 UNK         0.5055 
     38 O          30.3082   28.3351    0.6002 O.2       5 UNK        -0.5220 
     39 N          29.0740   26.8659    1.8181 N.am      6 UNK        -0.4450 
     40 CA         29.5618   27.2750    3.1308 C.3       6 UNK         0.0367 
     41 CB         29.2848   26.1721    4.1640 C.3       6 UNK        -0.1929 
     42 C          28.9423   28.6073    3.5714 C.2       6 UNK         0.5070 
     43 O          27.7318   28.7991    3.4362 O.2       6 UNK        -0.5237 
     44 N          29.7867   29.4769    4.1270 N.am      7 UNK        -0.4739 
     45 CA         29.4656   30.7833    4.6901 C.3       7 UNK         0.0276 
     46 CB         29.1430   31.7912    3.5703 C.3       7 UNK        -0.1927 
     47 C          30.6978   31.2357    5.4763 C.2       7 UNK         0.5013 
     48 O          31.8104   30.8456    5.1139 O.2       7 UNK        -0.5193 
     49 N          30.5080   32.0777    6.5003 N.am      8 UNK        -0.4253 
     50 CA         31.5868   32.5856    7.3614 C.3       8 UNK         0.0242 
     51 CB         30.9905   33.4631    8.4738 C.3       8 UNK        -0.2000 
     52 C          32.6871   33.3490    6.6007 C.2       8 UNK         0.4948 
     53 O          33.8643   33.2079    6.9315 O.2       8 UNK        -0.5275 
     54 N          32.2879   34.1013    5.5661 N.am      9 UNK        -0.4246 
     55 CA         33.1898   34.8212    4.6640 C.3       9 UNK         0.0261 
     56 CB         32.3780   35.8536    3.8642 C.3       9 UNK        -0.1959 
     57 C          33.9773   33.9032    3.7088 C.2       9 UNK         0.5033 
     58 O          35.0234   34.3241    3.2125 O.2       9 UNK        -0.5390 
     59 N          33.4683   32.6900    3.4523 N.am      10 UNK        -0.4215 
     60 CA         34.0950   31.6951    2.5826 C.3       10 UNK         0.0240 
     61 CB         33.0083   30.9127    1.8217 C.3       10 UNK        -0.1982 
     62 C          34.9862   30.7428    3.3900 C.2       10 UNK         0.4970 
     63 O          36.1365   30.5221    3.0089 O.2       10 UNK        -0.4916 
     64 N          34.4343   30.1873    4.4747 N.am      11 UNK        -0.4279 
     65 CA         35.0852   29.1756    5.3167 C.3       11 UNK         0.1003 
     66 C          36.0613   29.7575    6.3761 C.2       11 UNK         0.5709 
     67 N          35.9953   31.0386    6.7184 N.am      11 UNK        -0.7358 
     68 O          36.9077   29.0303    6.8906 O.2       11 UNK        -0.4999 
     69 C69        34.0545   28.2177    5.9734 C.3       12 UNK        -0.0954 
     70 S70        32.8762   27.4816    4.7888 S.3       12 UNK        -0.2268 
     71 C71        33.9052   26.1994    4.0156 C.3       12 UNK         0.0203 
     72 H72        26.4950   18.9565    4.2782 H         1 UNK         0.0888 
     73 H73        25.3381   18.8295    2.9500 H         1 UNK         0.0888 
     74 H74        27.0335   18.4147    2.6880 H         1 UNK         0.0888 
     75 H75        28.1307   19.9959    1.5892 H         1 UNK         0.3017 
     76 H76        28.8339   21.8902    0.7204 H         1 UNK         0.0873 
     77 H77        27.9638   23.3534    3.2507 H         1 UNK         0.0745 
     78 H78        29.1865   23.8606    2.1221 H         1 UNK         0.0745 
     79 H79        32.2065   21.4603    2.9471 H         1 UNK         0.0705 
     80 H80        31.1682   21.5435    1.5494 H         1 UNK         0.0705 
     81 H81        32.7241   23.7418    4.1821 H         1 UNK         0.1334 
     82 H82        33.3989   26.9796    1.4569 H         1 UNK         0.1417 
     83 H83        31.4076   23.4191    0.1213 H         1 UNK         0.1562 
     84 H84        33.2120   25.7868   -1.2555 H         1 UNK         0.0748 
     85 H85        32.1363   27.0076   -0.6511 H         1 UNK         0.0748 
     86 H86        29.4681   24.8077    0.0051 H         1 UNK         0.0940 
     87 H87        28.6564   24.8736   -1.5116 H         1 UNK         0.0940 
     88 H88        29.1750   27.4798   -1.4518 H         1 UNK         0.0703 
     89 H89        26.9402   25.9975   -0.4178 H         1 UNK         0.3081 
     90 H90        25.0022   27.5569    0.6286 H         1 UNK         0.0719 
     91 H91        24.5364   29.5474   -1.6555 H         1 UNK         0.0809 
     92 H92        23.3194   29.0286   -0.4899 H         1 UNK         0.0809 
     93 H93        24.7186   29.9422    0.0470 H         1 UNK         0.0809 
     94 H94        24.1451   26.0345   -0.7293 H         1 UNK         0.2990 
     95 H95        22.9545   25.6272   -3.2493 H         1 UNK         0.0690 
     96 H96        24.0317   24.1453   -4.9707 H         1 UNK         0.0788 
     97 H97        25.5962   24.8712   -4.6031 H         1 UNK         0.0788 
     98 H98        24.3071   25.8509   -5.2808 H         1 UNK         0.0788 
     99 H99        23.2116   23.9158   -1.8863 H         1 UNK         0.2993 
    100 H100       24.2641   22.8367   -0.0973 H         1 UNK         0.0949 
    101 H101       23.4668   21.4475   -2.0399 H         1 UNK         0.0767 
    102 H102       25.0860   20.7960   -2.2440 H         1 UNK         0.0767 
    103 H103       24.1615   20.4411   -0.7840 H         1 UNK         0.0767 
    104 H104       26.4159   21.0905   -0.1406 H         1 UNK         0.3013 
    105 H105       28.3457   26.1668    1.7951 H         1 UNK         0.3121 
    106 H106       30.6425   27.4001    3.0531 H         1 UNK         0.0774 
    107 H107       28.2276   25.9078    4.2056 H         1 UNK         0.0815 
    108 H108       29.5827   26.4918    5.1635 H         1 UNK         0.0815 
    109 H109       29.8564   25.2724    3.9396 H         1 UNK         0.0815 
    110 H110       30.7656   29.2299    4.2278 H         1 UNK         0.2987 
    111 H111       28.6161   30.6836    5.3690 H         1 UNK         0.0949 
    112 H112       29.9719   31.8912    2.8680 H         1 UNK         0.0806 
    113 H113       28.2625   31.4900    3.0026 H         1 UNK         0.0806 
    114 H114       28.9368   32.7813    3.9785 H         1 UNK         0.0806 
    115 H115       29.5675   32.3659    6.7311 H         1 UNK         0.3010 
    116 H116       32.0626   31.7206    7.8289 H         1 UNK         0.0829 
    117 H117       31.7725   33.8367    9.1367 H         1 UNK         0.0813 
    118 H118       30.4650   34.3292    8.0696 H         1 UNK         0.0813 
    119 H119       30.2888   32.9010    9.0903 H         1 UNK         0.0813 
    120 H120       31.2990   34.1636    5.3718 H         1 UNK         0.3038 
    121 H121       33.9198   35.3592    5.2728 H         1 UNK         0.0769 
    122 H122       31.6195   35.3776    3.2412 H         1 UNK         0.0811 
    123 H123       33.0256   36.4318    3.2033 H         1 UNK         0.0811 
    124 H124       31.8768   36.5627    4.5233 H         1 UNK         0.0811 
    125 H125       32.6487   32.3870    3.9635 H         1 UNK         0.3204 
    126 H126       34.7221   32.1957    1.8415 H         1 UNK         0.0748 
    127 H127       33.4549   30.1742    1.1545 H         1 UNK         0.0771 
    128 H128       32.3374   30.3753    2.4929 H         1 UNK         0.0771 
    129 H129       32.4002   31.5766    1.2072 H         1 UNK         0.0771 
    130 H130       33.4732   30.4161    4.7224 H         1 UNK         0.2980 
    131 H131       35.7079   28.5631    4.6626 H         1 UNK         0.0545 
    132 H132       35.2675   31.6435    6.3619 H         1 UNK         0.3459 
    133 H133       36.6425   31.3943    7.4033 H         1 UNK         0.3459 
    134 H134       34.5610   27.4101    6.5051 H         1 UNK         0.0616 
    135 H135       33.4695   28.7560    6.7215 H         1 UNK         0.0616 
    136 H136       34.7917   26.6600    3.5781 H         1 UNK         0.0634 
    137 H137       34.2610   25.5127    4.7852 H         1 UNK         0.0634 
@<TRIPOS>BOND
     1    1    2 1    
     2    1   72 1    
     3    1   73 1    
     4    1   74 1    
     5    2    3 2    
     6    2    4 am   BACKBONE|DICT|INTERRES
     7    4    5 1    
     8    4   75 1    
     9    5    6 1    
    10    5   35 1    
    11    5   76 1    
    12    6    7 1    
    13    6   77 1    
    14    6   78 1    
    15    7    8 1    
    16    8    9 1    
    17    8   79 1    
    18    8   80 1    
    19    9   10 ar   
    20    9   14 ar   
    21   10   11 ar   
    22   10   81 1    
    23   11   12 ar   
    24   11   71 1    
    25   12   13 ar   
    26   12   82 1    
    27   13   14 ar   
    28   13   15 1    
    29   14   83 1    
    30   15   16 1    
    31   15   84 1    
    32   15   85 1    
    33   16   17 1    
    34   17   18 1    
    35   17   86 1    
    36   17   87 1    
    37   18   19 1    
    38   18   37 1    
    39   18   88 1    
    40   19   20 am   BACKBONE|DICT|INTERRES
    41   19   89 1    
    42   20   21 2    
    43   20   22 1    
    44   22   23 1    
    45   22   24 1    
    46   22   90 1    
    47   23   91 1    
    48   23   92 1    
    49   23   93 1    
    50   24   25 am   BACKBONE|DICT|INTERRES
    51   24   94 1    
    52   25   26 2    
    53   25   27 1    
    54   27   28 1    
    55   27   29 1    
    56   27   95 1    
    57   28   96 1    
    58   28   97 1    
    59   28   98 1    
    60   29   30 am   BACKBONE|DICT|INTERRES
    61   29   99 1    
    62   30   31 2    
    63   30   32 1    
    64   32   33 1    
    65   32   34 1    
    66   32  100 1    
    67   33  101 1    
    68   33  102 1    
    69   33  103 1    
    70   34   35 am   BACKBONE|DICT|INTERRES
    71   34  104 1    
    72   35   36 2    
    73   37   38 2    
    74   37   39 am   BACKBONE|DICT|INTERRES
    75   39   40 1    
    76   39  105 1    
    77   40   41 1    
    78   40   42 1    
    79   40  106 1    
    80   41  107 1    
    81   41  108 1    
    82   41  109 1    
    83   42   43 2    
    84   42   44 am   BACKBONE|DICT|INTERRES
    85   44   45 1    
    86   44  110 1    
    87   45   46 1    
    88   45   47 1    
    89   45  111 1    
    90   46  112 1    
    91   46  113 1    
    92   46  114 1    
    93   47   48 2    
    94   47   49 am   BACKBONE|DICT|INTERRES
    95   49   50 1    
    96   49  115 1    
    97   50   51 1    
    98   50   52 1    
    99   50  116 1    
   100   51  117 1    
   101   51  118 1    
   102   51  119 1    
   103   52   53 2    
   104   52   54 am   BACKBONE|DICT|INTERRES
   105   54   55 1    
   106   54  120 1    
   107   55   56 1    
   108   55   57 1    
   109   55  121 1    
   110   56  122 1    
   111   56  123 1    
   112   56  124 1    
   113   57   58 2    
   114   57   59 am   BACKBONE|DICT|INTERRES
   115   59   60 1    
   116   59  125 1    
   117   60   61 1    
   118   60   62 1    
   119   60  126 1    
   120   61  127 1    
   121   61  128 1    
   122   61  129 1    
   123   62   63 2    
   124   62   64 am   BACKBONE|DICT|INTERRES
   125   64   65 1    
   126   64  130 1    
   127   65   66 1    
   128   65   69 1    
   129   65  131 1    
   130   66   67 am   BACKBONE|DICT|INTERRES
   131   66   68 2    
   132   67  132 1    
   133   67  133 1    
   134   69   70 1    
   135   69  134 1    
   136   69  135 1    
   137   70   71 1    
   138   71  136 1    
   139   71  137 1    
@<TRIPOS>SUBSTRUCTURE
     1 UNK         1 GROUP             0       ****    0 ROOT    
