@<TRIPOS>MOLECULE
3R136
137   139    1
SMALL
USER_CHARGES


@<TRIPOS>ATOM
      1 CA         30.0816   22.0579   -4.6685 C.3       0 UNK        -0.1979 
      2 C          30.0679   23.3898   -3.9324 C.2       0 UNK         0.4864 
      3 O          30.4596   24.4083   -4.5050 O.2       0 UNK        -0.5359 
      4 N          29.6284   23.3879   -2.6670 N.am      1 UNK        -0.4318 
      5 CA         29.4778   24.5846   -1.8333 C.3       1 UNK         0.0824 
      6 C6         29.4523   24.2100   -0.3297 C.3       12 UNK        -0.0944 
      7 S7         29.9666   25.6040    0.7276 S.3       12 UNK        -0.2672 
      8 C8         31.7343   25.2510    0.9848 C.3       12 UNK         0.0333 
      9 C9         31.9964   24.7251    2.3878 C.ar      12 UNK        -0.0807 
     10 C10        32.7048   25.5061    3.3060 C.ar      12 UNK        -0.0894 
     11 C11        32.9470   25.0362    4.5998 C.ar      12 UNK        -0.0804 
     12 C12        32.4395   23.7919    4.9848 C.ar      12 UNK        -0.0824 
     13 C13        31.7085   23.0110    4.0837 C.ar      12 UNK        -0.0762 
     14 C14        31.5255   23.4658    2.7740 C.ar      12 UNK        -0.0782 
     15 C15        31.0948   21.6911    4.5392 C.3       12 UNK         0.0230 
     16 S16        29.2660   21.6915    4.4766 S.3       12 UNK        -0.2608 
     17 C17        28.8328   23.2663    5.2966 C.3       12 UNK        -0.0989 
     18 CA         28.4010   24.3263    4.2455 C.3       5 UNK         0.0716 
     19 N          27.0945   24.0629    3.6377 N.am      5 UNK        -0.4135 
     20 C          25.8915   24.1140    4.2218 C.2       4 UNK         0.5031 
     21 O          25.7092   24.3432    5.4188 O.2       4 UNK        -0.5229 
     22 CA         24.6851   23.8943    3.2840 C.3       4 UNK         0.0329 
     23 CB         23.3808   23.6236    4.0573 C.3       4 UNK        -0.2001 
     24 N          24.4703   25.0277    2.3765 N.am      4 UNK        -0.4303 
     25 C          25.2689   25.3720    1.3573 C.2       3 UNK         0.5044 
     26 O          26.2841   24.7402    1.0529 O.2       3 UNK        -0.5152 
     27 CA         24.8714   26.6143    0.5454 C.3       3 UNK         0.0319 
     28 CB         24.5125   27.8218    1.4330 C.3       3 UNK        -0.2001 
     29 N          25.9829   26.9715   -0.3306 N.am      3 UNK        -0.4354 
     30 C          25.8885   27.4585   -1.5704 C.2       2 UNK         0.4964 
     31 O          24.8224   27.7338   -2.1229 O.2       2 UNK        -0.5047 
     32 CA         27.2098   27.6727   -2.3313 C.3       2 UNK         0.0288 
     33 CB         27.7329   29.1002   -2.1033 C.3       2 UNK        -0.2113 
     34 N          28.2617   26.7142   -1.9739 N.am      2 UNK        -0.4145 
     35 C          28.2378   25.4047   -2.2612 C.2       1 UNK         0.5006 
     36 O          27.2977   24.8491   -2.8379 O.2       1 UNK        -0.5103 
     37 C          28.5043   25.7831    4.7345 C.2       5 UNK         0.5055 
     38 O          28.7383   26.0351    5.9175 O.2       5 UNK        -0.5220 
     39 N          28.3203   26.7118    3.7905 N.am      6 UNK        -0.4450 
     40 CA         28.5171   28.1460    3.9421 C.3       6 UNK         0.0367 
     41 CB         27.3219   28.7919    4.6647 C.3       6 UNK        -0.1929 
     42 C          28.7078   28.7264    2.5390 C.2       6 UNK         0.5070 
     43 O          28.0412   28.2777    1.6035 O.2       6 UNK        -0.5237 
     44 N          29.6049   29.7046    2.4159 N.am      7 UNK        -0.4739 
     45 CA         29.9684   30.3837    1.1761 C.3       7 UNK         0.0276 
     46 CB         30.8810   29.4736    0.3253 C.3       7 UNK        -0.1927 
     47 C          30.6445   31.7169    1.5283 C.2       7 UNK         0.5013 
     48 O          30.6918   32.0919    2.7037 O.2       7 UNK        -0.5193 
     49 N          31.1528   32.4194    0.5066 N.am      8 UNK        -0.4253 
     50 CA         31.9470   33.6397    0.6566 C.3       8 UNK         0.0242 
     51 CB         32.1863   34.2699   -0.7256 C.3       8 UNK        -0.2000 
     52 C          33.2781   33.3293    1.3610 C.2       8 UNK         0.4948 
     53 O          34.0670   32.5372    0.8387 O.2       8 UNK        -0.5275 
     54 N          33.4794   33.9308    2.5412 N.am      9 UNK        -0.4246 
     55 CA         34.5927   33.7475    3.4828 C.3       9 UNK         0.0261 
     56 CB         35.9460   34.1524    2.8639 C.3       9 UNK        -0.1959 
     57 C          34.6506   32.3411    4.1072 C.2       9 UNK         0.5033 
     58 O          34.5807   32.2271    5.3321 O.2       9 UNK        -0.5390 
     59 N          34.7649   31.3035    3.2683 N.am      10 UNK        -0.4215 
     60 CA         34.8083   29.8892    3.6434 C.3       10 UNK         0.0240 
     61 CB         35.1340   29.0464    2.3975 C.3       10 UNK        -0.1982 
     62 C          33.4858   29.4487    4.2901 C.2       10 UNK         0.4970 
     63 O          32.5117   29.2120    3.5752 O.2       10 UNK        -0.4916 
     64 N          33.4777   29.3820    5.6281 N.am      11 UNK        -0.4279 
     65 CA         32.2888   29.1358    6.4620 C.3       11 UNK         0.1003 
     66 C          31.2074   30.2560    6.3446 C.2       11 UNK         0.5709 
     67 N          31.5828   31.4853    6.0090 N.am      11 UNK        -0.7358 
     68 O          30.0254   30.0276    6.5865 O.2       11 UNK        -0.4999 
     69 C69        31.7299   27.6903    6.3025 C.3       12 UNK        -0.0954 
     70 S70        32.8440   26.4353    7.0164 S.3       12 UNK        -0.2268 
     71 C71        33.7862   25.8558    5.5702 C.3       12 UNK         0.0203 
     72 H72        29.4435   22.1105   -5.5502 H         1 UNK         0.0888 
     73 H73        31.0939   21.8189   -4.9935 H         1 UNK         0.0888 
     74 H74        29.7256   21.2410   -4.0408 H         1 UNK         0.0888 
     75 H75        29.2830   22.5281   -2.2655 H         1 UNK         0.3017 
     76 H76        30.3597   25.2041   -2.0145 H         1 UNK         0.0873 
     77 H77        28.4632   23.8673   -0.0235 H         1 UNK         0.0745 
     78 H78        30.1198   23.3695   -0.1356 H         1 UNK         0.0745 
     79 H79        32.1020   24.5383    0.2456 H         1 UNK         0.0705 
     80 H80        32.2908   26.1742    0.8146 H         1 UNK         0.0705 
     81 H81        33.0751   26.4786    3.0108 H         1 UNK         0.1334 
     82 H82        32.6065   23.4404    5.9940 H         1 UNK         0.1417 
     83 H83        30.9657   22.8619    2.0734 H         1 UNK         0.1562 
     84 H84        31.4062   21.4529    5.5575 H         1 UNK         0.0748 
     85 H85        31.4707   20.8841    3.9089 H         1 UNK         0.0748 
     86 H86        29.6910   23.6081    5.8775 H         1 UNK         0.0940 
     87 H87        28.0390   23.0895    6.0235 H         1 UNK         0.0940 
     88 H88        29.1049   24.2746    3.4174 H         1 UNK         0.0703 
     89 H89        27.0942   23.9666    2.6260 H         1 UNK         0.3081 
     90 H90        24.8993   23.0089    2.6811 H         1 UNK         0.0719 
     91 H91        23.0805   24.4821    4.6596 H         1 UNK         0.0809 
     92 H92        22.5601   23.3842    3.3808 H         1 UNK         0.0809 
     93 H93        23.4977   22.7760    4.7340 H         1 UNK         0.0809 
     94 H94        23.6676   25.6078    2.5726 H         1 UNK         0.2990 
     95 H95        24.0041   26.3390   -0.0580 H         1 UNK         0.0690 
     96 H96        24.2900   28.7014    0.8288 H         1 UNK         0.0788 
     97 H97        25.3328   28.0812    2.1016 H         1 UNK         0.0788 
     98 H98        23.6321   27.6275    2.0458 H         1 UNK         0.0788 
     99 H99        26.9007   26.7611    0.0429 H         1 UNK         0.2993 
    100 H100       26.9958   27.5513   -3.3955 H         1 UNK         0.0949 
    101 H101       26.9888   29.8406   -2.4003 H         1 UNK         0.0767 
    102 H102       27.9651   29.2755   -1.0526 H         1 UNK         0.0767 
    103 H103       28.6337   29.2940   -2.6859 H         1 UNK         0.0767 
    104 H104       29.0476   27.0787   -1.4544 H         1 UNK         0.3013 
    105 H105       28.1492   26.4290    2.8320 H         1 UNK         0.3121 
    106 H106       29.4269   28.3170    4.5190 H         1 UNK         0.0774 
    107 H107       27.4537   29.8719    4.7412 H         1 UNK         0.0815 
    108 H108       26.3843   28.6097    4.1405 H         1 UNK         0.0815 
    109 H109       27.2189   28.4086    5.6798 H         1 UNK         0.0815 
    110 H110       30.1092   30.0446    3.2274 H         1 UNK         0.2987 
    111 H111       29.0571   30.6148    0.6216 H         1 UNK         0.0949 
    112 H112       31.1325   29.9314   -0.6314 H         1 UNK         0.0806 
    113 H113       31.8159   29.2529    0.8423 H         1 UNK         0.0806 
    114 H114       30.3966   28.5246    0.0999 H         1 UNK         0.0806 
    115 H115       31.0903   32.0365   -0.4251 H         1 UNK         0.3010 
    116 H116       31.3736   34.3470    1.2600 H         1 UNK         0.0829 
    117 H117       31.2461   34.5277   -1.2135 H         1 UNK         0.0813 
    118 H118       32.7679   35.1887   -0.6383 H         1 UNK         0.0813 
    119 H119       32.7360   33.5991   -1.3874 H         1 UNK         0.0813 
    120 H120       32.7362   34.5235    2.8858 H         1 UNK         0.3038 
    121 H121       34.3968   34.4410    4.3024 H         1 UNK         0.0769 
    122 H122       36.2307   33.5098    2.0305 H         1 UNK         0.0811 
    123 H123       36.7442   34.0908    3.6049 H         1 UNK         0.0811 
    124 H124       35.9220   35.1794    2.4997 H         1 UNK         0.0811 
    125 H125       34.7134   31.5182    2.2745 H         1 UNK         0.3204 
    126 H126       35.6173   29.7530    4.3640 H         1 UNK         0.0748 
    127 H127       36.1052   29.3141    1.9812 H         1 UNK         0.0771 
    128 H128       35.1678   27.9841    2.6427 H         1 UNK         0.0771 
    129 H129       34.3869   29.1777    1.6132 H         1 UNK         0.0771 
    130 H130       34.3121   29.6501    6.1298 H         1 UNK         0.2980 
    131 H131       32.6348   29.2291    7.4918 H         1 UNK         0.0545 
    132 H132       30.8860   32.2074    5.9238 H         1 UNK         0.3459 
    133 H133       32.5555   31.6921    5.8216 H         1 UNK         0.3459 
    134 H134       30.7833   27.5850    6.8340 H         1 UNK         0.0616 
    135 H135       31.5140   27.4516    5.2612 H         1 UNK         0.0616 
    136 H136       34.2454   26.7074    5.0688 H         1 UNK         0.0634 
    137 H137       34.6114   25.2367    5.9245 H         1 UNK         0.0634 
@<TRIPOS>BOND
     1    1    2 1    
     2    1   72 1    
     3    1   73 1    
     4    1   74 1    
     5    2    3 2    
     6    2    4 am   BACKBONE|DICT|INTERRES
     7    4    5 1    
     8    4   75 1    
     9    5    6 1    
    10    5   35 1    
    11    5   76 1    
    12    6    7 1    
    13    6   77 1    
    14    6   78 1    
    15    7    8 1    
    16    8    9 1    
    17    8   79 1    
    18    8   80 1    
    19    9   10 ar   
    20    9   14 ar   
    21   10   11 ar   
    22   10   81 1    
    23   11   12 ar   
    24   11   71 1    
    25   12   13 ar   
    26   12   82 1    
    27   13   14 ar   
    28   13   15 1    
    29   14   83 1    
    30   15   16 1    
    31   15   84 1    
    32   15   85 1    
    33   16   17 1    
    34   17   18 1    
    35   17   86 1    
    36   17   87 1    
    37   18   19 1    
    38   18   37 1    
    39   18   88 1    
    40   19   20 am   BACKBONE|DICT|INTERRES
    41   19   89 1    
    42   20   21 2    
    43   20   22 1    
    44   22   23 1    
    45   22   24 1    
    46   22   90 1    
    47   23   91 1    
    48   23   92 1    
    49   23   93 1    
    50   24   25 am   BACKBONE|DICT|INTERRES
    51   24   94 1    
    52   25   26 2    
    53   25   27 1    
    54   27   28 1    
    55   27   29 1    
    56   27   95 1    
    57   28   96 1    
    58   28   97 1    
    59   28   98 1    
    60   29   30 am   BACKBONE|DICT|INTERRES
    61   29   99 1    
    62   30   31 2    
    63   30   32 1    
    64   32   33 1    
    65   32   34 1    
    66   32  100 1    
    67   33  101 1    
    68   33  102 1    
    69   33  103 1    
    70   34   35 am   BACKBONE|DICT|INTERRES
    71   34  104 1    
    72   35   36 2    
    73   37   38 2    
    74   37   39 am   BACKBONE|DICT|INTERRES
    75   39   40 1    
    76   39  105 1    
    77   40   41 1    
    78   40   42 1    
    79   40  106 1    
    80   41  107 1    
    81   41  108 1    
    82   41  109 1    
    83   42   43 2    
    84   42   44 am   BACKBONE|DICT|INTERRES
    85   44   45 1    
    86   44  110 1    
    87   45   46 1    
    88   45   47 1    
    89   45  111 1    
    90   46  112 1    
    91   46  113 1    
    92   46  114 1    
    93   47   48 2    
    94   47   49 am   BACKBONE|DICT|INTERRES
    95   49   50 1    
    96   49  115 1    
    97   50   51 1    
    98   50   52 1    
    99   50  116 1    
   100   51  117 1    
   101   51  118 1    
   102   51  119 1    
   103   52   53 2    
   104   52   54 am   BACKBONE|DICT|INTERRES
   105   54   55 1    
   106   54  120 1    
   107   55   56 1    
   108   55   57 1    
   109   55  121 1    
   110   56  122 1    
   111   56  123 1    
   112   56  124 1    
   113   57   58 2    
   114   57   59 am   BACKBONE|DICT|INTERRES
   115   59   60 1    
   116   59  125 1    
   117   60   61 1    
   118   60   62 1    
   119   60  126 1    
   120   61  127 1    
   121   61  128 1    
   122   61  129 1    
   123   62   63 2    
   124   62   64 am   BACKBONE|DICT|INTERRES
   125   64   65 1    
   126   64  130 1    
   127   65   66 1    
   128   65   69 1    
   129   65  131 1    
   130   66   67 am   BACKBONE|DICT|INTERRES
   131   66   68 2    
   132   67  132 1    
   133   67  133 1    
   134   69   70 1    
   135   69  134 1    
   136   69  135 1    
   137   70   71 1    
   138   71  136 1    
   139   71  137 1    
@<TRIPOS>SUBSTRUCTURE
     1 UNK         1 GROUP             0       ****    0 ROOT    
