@<TRIPOS>MOLECULE
3R136
137   139    1
SMALL
USER_CHARGES


@<TRIPOS>ATOM
      1 CA         26.0062   20.6184    2.6831 C.3       0 UNK        -0.1979 
      2 C          26.7388   21.5666    1.7470 C.2       0 UNK         0.4864 
      3 O          26.0948   22.3133    1.0094 O.2       0 UNK        -0.5359 
      4 N          28.0797   21.5573    1.7789 N.am      1 UNK        -0.4318 
      5 CA         28.9466   22.3947    0.9386 C.3       1 UNK         0.0824 
      6 C6         30.4390   22.0073    1.0933 C.3       12 UNK        -0.0944 
      7 S7         31.4189   22.3916   -0.3964 S.3       12 UNK        -0.2672 
      8 C8         32.8582   23.2595    0.3048 C.3       12 UNK         0.0333 
      9 C9         32.5309   24.6924    0.6992 C.ar      12 UNK        -0.0807 
     10 C10        32.3630   25.0392    2.0425 C.ar      12 UNK        -0.0894 
     11 C11        32.0842   26.3604    2.4049 C.ar      12 UNK        -0.0804 
     12 C12        31.9771   27.3395    1.4118 C.ar      12 UNK        -0.0824 
     13 C13        32.1414   27.0054    0.0632 C.ar      12 UNK        -0.0762 
     14 C14        32.4206   25.6795   -0.2841 C.ar      12 UNK        -0.0782 
     15 C15        32.0114   28.0641   -1.0298 C.3       12 UNK         0.0230 
     16 S16        30.4169   28.9548   -1.0027 S.3       12 UNK        -0.2608 
     17 C17        29.2158   27.5982   -0.7877 C.3       12 UNK        -0.0989 
     18 CA         27.9614   27.6578   -1.6917 C.3       5 UNK         0.0716 
     19 N          27.1900   26.4223   -1.5391 N.am      5 UNK        -0.4135 
     20 C          26.1462   26.0421   -2.2867 C.2       4 UNK         0.5031 
     21 O          25.7483   26.6515   -3.2802 O.2       4 UNK        -0.5229 
     22 CA         25.4076   24.7717   -1.8277 C.3       4 UNK         0.0329 
     23 CB         26.1468   23.5080   -2.2966 C.3       4 UNK        -0.2001 
     24 N          25.2258   24.7230   -0.3735 N.am      4 UNK        -0.4303 
     25 C          24.4624   25.5746    0.3278 C.2       3 UNK         0.5044 
     26 O          23.7611   26.4488   -0.1813 O.2       3 UNK        -0.5152 
     27 CA         24.5132   25.4553    1.8595 C.3       3 UNK         0.0319 
     28 CB         23.5669   24.3522    2.3604 C.3       3 UNK        -0.2001 
     29 N          25.8704   25.2119    2.3540 N.am      3 UNK        -0.4354 
     30 C          26.8520   26.1261    2.3484 C.2       2 UNK         0.4964 
     31 O          26.7068   27.2793    1.9470 O.2       2 UNK        -0.5047 
     32 CA         28.2350   25.6722    2.8472 C.3       2 UNK         0.0288 
     33 CB         28.3070   25.7845    4.3787 C.3       2 UNK        -0.2113 
     34 N          28.5731   24.3054    2.4395 N.am      2 UNK        -0.4145 
     35 C          28.7067   23.9018    1.1661 C.2       1 UNK         0.5006 
     36 O          28.5701   24.6470    0.1962 O.2       1 UNK        -0.5103 
     37 C          27.1006   28.9096   -1.4123 C.2       5 UNK         0.5055 
     38 O          27.1981   29.8891   -2.1537 O.2       5 UNK        -0.5220 
     39 N          26.2767   28.8421   -0.3541 N.am      6 UNK        -0.4450 
     40 CA         25.4545   29.9161    0.2155 C.3       6 UNK         0.0367 
     41 CB         24.3820   30.4004   -0.7830 C.3       6 UNK        -0.1929 
     42 C          26.3112   31.0578    0.7987 C.2       6 UNK         0.5070 
     43 O          25.8972   32.2182    0.7752 O.2       6 UNK        -0.5237 
     44 N          27.4926   30.7022    1.3145 N.am      7 UNK        -0.4739 
     45 CA         28.5148   31.5814    1.8708 C.3       7 UNK         0.0276 
     46 CB         29.1860   32.3976    0.7456 C.3       7 UNK        -0.1927 
     47 C          29.5404   30.7134    2.6142 C.2       7 UNK         0.5013 
     48 O          29.4626   29.4827    2.5577 O.2       7 UNK        -0.5193 
     49 N          30.4904   31.3690    3.2860 N.am      8 UNK        -0.4253 
     50 CA         31.6162   30.7437    3.9692 C.3       8 UNK         0.0242 
     51 CB         31.2582   30.4934    5.4441 C.3       8 UNK        -0.2000 
     52 C          32.8266   31.6713    3.8466 C.2       8 UNK         0.4948 
     53 O          32.6799   32.8764    4.0642 O.2       8 UNK        -0.5275 
     54 N          33.9921   31.1001    3.5172 N.am      9 UNK        -0.4246 
     55 CA         35.2714   31.8137    3.4835 C.3       9 UNK         0.0261 
     56 CB         36.2289   31.1285    2.4919 C.3       9 UNK        -0.1959 
     57 C          35.8768   31.8929    4.8932 C.2       9 UNK         0.5033 
     58 O          36.1179   32.9902    5.3977 O.2       9 UNK        -0.5390 
     59 N          36.0725   30.7213    5.5090 N.am      10 UNK        -0.4215 
     60 CA         36.5351   30.5370    6.8859 C.3       10 UNK         0.0240 
     61 CB         38.0664   30.7118    6.9671 C.3       10 UNK        -0.1982 
     62 C          36.0546   29.1715    7.4087 C.2       10 UNK         0.4970 
     63 O          36.7995   28.4779    8.1032 O.2       10 UNK        -0.4916 
     64 N          34.8332   28.7882    7.0161 N.am      11 UNK        -0.4279 
     65 CA         34.2128   27.4915    7.3184 C.3       11 UNK         0.1003 
     66 C          33.8091   27.3560    8.8116 C.2       11 UNK         0.5709 
     67 N          33.8327   26.1456    9.3527 N.am      11 UNK        -0.7358 
     68 O          33.4390   28.3271    9.4697 O.2       11 UNK        -0.4999 
     69 C69        33.0033   27.2113    6.3877 C.3       12 UNK        -0.0954 
     70 S70        33.4384   27.3043    4.6170 S.3       12 UNK        -0.2268 
     71 C71        31.8898   26.7179    3.8695 C.3       12 UNK         0.0203 
     72 H72        25.3881   19.9299    2.1075 H         1 UNK         0.0888 
     73 H73        26.6942   20.0308    3.2905 H         1 UNK         0.0888 
     74 H74        25.3561   21.1808    3.3527 H         1 UNK         0.0888 
     75 H75        28.5521   20.9199    2.4045 H         1 UNK         0.3017 
     76 H76        28.6480   22.1833   -0.0909 H         1 UNK         0.0873 
     77 H77        30.5315   20.9305    1.2441 H         1 UNK         0.0745 
     78 H78        30.8808   22.4659    1.9795 H         1 UNK         0.0745 
     79 H79        33.6562   23.2676   -0.4392 H         1 UNK         0.0705 
     80 H80        33.2463   22.6977    1.1560 H         1 UNK         0.0705 
     81 H81        32.4531   24.2817    2.8089 H         1 UNK         0.1334 
     82 H82        31.7487   28.3604    1.6817 H         1 UNK         0.1417 
     83 H83        32.5480   25.4083   -1.3234 H         1 UNK         0.1562 
     84 H84        32.1333   27.6150   -2.0167 H         1 UNK         0.0748 
     85 H85        32.8203   28.7876   -0.9211 H         1 UNK         0.0748 
     86 H86        28.9362   27.5624    0.2665 H         1 UNK         0.0940 
     87 H87        29.7299   26.6581   -0.9887 H         1 UNK         0.0940 
     88 H88        28.2908   27.7079   -2.7316 H         1 UNK         0.0703 
     89 H89        27.4985   25.7993   -0.7955 H         1 UNK         0.3081 
     90 H90        24.4172   24.7777   -2.2877 H         1 UNK         0.0719 
     91 H91        25.5977   22.6056   -2.0266 H         1 UNK         0.0809 
     92 H92        26.2654   23.5048   -3.3808 H         1 UNK         0.0809 
     93 H93        27.1426   23.4346   -1.8583 H         1 UNK         0.0809 
     94 H94        25.7137   23.9842    0.1282 H         1 UNK         0.2990 
     95 H95        24.1695   26.4049    2.2759 H         1 UNK         0.0690 
     96 H96        22.5431   24.5434    2.0357 H         1 UNK         0.0788 
     97 H97        23.5563   24.3028    3.4493 H         1 UNK         0.0788 
     98 H98        23.8480   23.3691    1.9821 H         1 UNK         0.0788 
     99 H99        26.0834   24.2717    2.6532 H         1 UNK         0.2993 
    100 H100       28.9822   26.3427    2.4160 H         1 UNK         0.0949 
    101 H101       27.5424   25.1785    4.8665 H         1 UNK         0.0767 
    102 H102       29.2752   25.4656    4.7613 H         1 UNK         0.0767 
    103 H103       28.1578   26.8176    4.6965 H         1 UNK         0.0767 
    104 H104       28.6779   23.6214    3.1743 H         1 UNK         0.3013 
    105 H105       26.3314   28.0141    0.2335 H         1 UNK         0.3121 
    106 H106       24.9325   29.4702    1.0635 H         1 UNK         0.0774 
    107 H107       24.8213   30.9357   -1.6250 H         1 UNK         0.0815 
    108 H108       23.6790   31.0796   -0.2996 H         1 UNK         0.0815 
    109 H109       23.8052   29.5642   -1.1785 H         1 UNK         0.0815 
    110 H110       27.7404   29.7191    1.3601 H         1 UNK         0.2987 
    111 H111       28.0467   32.2548    2.5918 H         1 UNK         0.0949 
    112 H112       29.6578   31.7477    0.0079 H         1 UNK         0.0806 
    113 H113       28.4664   33.0256    0.2205 H         1 UNK         0.0806 
    114 H114       29.9571   33.0616    1.1371 H         1 UNK         0.0806 
    115 H115       30.5188   32.3806    3.2653 H         1 UNK         0.3010 
    116 H116       31.8583   29.7926    3.4936 H         1 UNK         0.0829 
    117 H117       32.1254   30.1490    6.0061 H         1 UNK         0.0813 
    118 H118       30.9001   31.4017    5.9303 H         1 UNK         0.0813 
    119 H119       30.4815   29.7340    5.5378 H         1 UNK         0.0813 
    120 H120       34.0162   30.1070    3.3335 H         1 UNK         0.3038 
    121 H121       35.1059   32.8349    3.1318 H         1 UNK         0.0769 
    122 H122       36.4115   30.0834    2.7442 H         1 UNK         0.0811 
    123 H123       37.1957   31.6335    2.4732 H         1 UNK         0.0811 
    124 H124       35.8308   31.1596    1.4774 H         1 UNK         0.0811 
    125 H125       35.8704   29.8695    5.0037 H         1 UNK         0.3204 
    126 H126       36.0660   31.2934    7.5187 H         1 UNK         0.0748 
    127 H127       38.3743   31.6997    6.6244 H         1 UNK         0.0771 
    128 H128       38.4207   30.6052    7.9933 H         1 UNK         0.0771 
    129 H129       38.5868   29.9698    6.3605 H         1 UNK         0.0771 
    130 H130       34.2603   29.4383    6.5028 H         1 UNK         0.2980 
    131 H131       34.9659   26.7269    7.1161 H         1 UNK         0.0545 
    132 H132       33.5603   26.0353   10.3170 H         1 UNK         0.3459 
    133 H133       34.1237   25.3407    8.8197 H         1 UNK         0.3459 
    134 H134       32.1858   27.9044    6.5890 H         1 UNK         0.0616 
    135 H135       32.6090   26.2126    6.5842 H         1 UNK         0.0616 
    136 H136       31.1156   27.4793    3.9760 H         1 UNK         0.0634 
    137 H137       31.5417   25.8415    4.4166 H         1 UNK         0.0634 
@<TRIPOS>BOND
     1    1    2 1    
     2    1   72 1    
     3    1   73 1    
     4    1   74 1    
     5    2    3 2    
     6    2    4 am   BACKBONE|DICT|INTERRES
     7    4    5 1    
     8    4   75 1    
     9    5    6 1    
    10    5   35 1    
    11    5   76 1    
    12    6    7 1    
    13    6   77 1    
    14    6   78 1    
    15    7    8 1    
    16    8    9 1    
    17    8   79 1    
    18    8   80 1    
    19    9   10 ar   
    20    9   14 ar   
    21   10   11 ar   
    22   10   81 1    
    23   11   12 ar   
    24   11   71 1    
    25   12   13 ar   
    26   12   82 1    
    27   13   14 ar   
    28   13   15 1    
    29   14   83 1    
    30   15   16 1    
    31   15   84 1    
    32   15   85 1    
    33   16   17 1    
    34   17   18 1    
    35   17   86 1    
    36   17   87 1    
    37   18   19 1    
    38   18   37 1    
    39   18   88 1    
    40   19   20 am   BACKBONE|DICT|INTERRES
    41   19   89 1    
    42   20   21 2    
    43   20   22 1    
    44   22   23 1    
    45   22   24 1    
    46   22   90 1    
    47   23   91 1    
    48   23   92 1    
    49   23   93 1    
    50   24   25 am   BACKBONE|DICT|INTERRES
    51   24   94 1    
    52   25   26 2    
    53   25   27 1    
    54   27   28 1    
    55   27   29 1    
    56   27   95 1    
    57   28   96 1    
    58   28   97 1    
    59   28   98 1    
    60   29   30 am   BACKBONE|DICT|INTERRES
    61   29   99 1    
    62   30   31 2    
    63   30   32 1    
    64   32   33 1    
    65   32   34 1    
    66   32  100 1    
    67   33  101 1    
    68   33  102 1    
    69   33  103 1    
    70   34   35 am   BACKBONE|DICT|INTERRES
    71   34  104 1    
    72   35   36 2    
    73   37   38 2    
    74   37   39 am   BACKBONE|DICT|INTERRES
    75   39   40 1    
    76   39  105 1    
    77   40   41 1    
    78   40   42 1    
    79   40  106 1    
    80   41  107 1    
    81   41  108 1    
    82   41  109 1    
    83   42   43 2    
    84   42   44 am   BACKBONE|DICT|INTERRES
    85   44   45 1    
    86   44  110 1    
    87   45   46 1    
    88   45   47 1    
    89   45  111 1    
    90   46  112 1    
    91   46  113 1    
    92   46  114 1    
    93   47   48 2    
    94   47   49 am   BACKBONE|DICT|INTERRES
    95   49   50 1    
    96   49  115 1    
    97   50   51 1    
    98   50   52 1    
    99   50  116 1    
   100   51  117 1    
   101   51  118 1    
   102   51  119 1    
   103   52   53 2    
   104   52   54 am   BACKBONE|DICT|INTERRES
   105   54   55 1    
   106   54  120 1    
   107   55   56 1    
   108   55   57 1    
   109   55  121 1    
   110   56  122 1    
   111   56  123 1    
   112   56  124 1    
   113   57   58 2    
   114   57   59 am   BACKBONE|DICT|INTERRES
   115   59   60 1    
   116   59  125 1    
   117   60   61 1    
   118   60   62 1    
   119   60  126 1    
   120   61  127 1    
   121   61  128 1    
   122   61  129 1    
   123   62   63 2    
   124   62   64 am   BACKBONE|DICT|INTERRES
   125   64   65 1    
   126   64  130 1    
   127   65   66 1    
   128   65   69 1    
   129   65  131 1    
   130   66   67 am   BACKBONE|DICT|INTERRES
   131   66   68 2    
   132   67  132 1    
   133   67  133 1    
   134   69   70 1    
   135   69  134 1    
   136   69  135 1    
   137   70   71 1    
   138   71  136 1    
   139   71  137 1    
@<TRIPOS>SUBSTRUCTURE
     1 UNK         1 GROUP             0       ****    0 ROOT    
