@<TRIPOS>MOLECULE
3R136
137   139    1
SMALL
USER_CHARGES


@<TRIPOS>ATOM
      1 CA         31.4845   23.1668   -3.3063 C.3       0 UNK        -0.1979 
      2 C          30.1630   23.6766   -2.7517 C.2       0 UNK         0.4864 
      3 O          29.4155   24.3446   -3.4681 O.2       0 UNK        -0.5359 
      4 N          29.8707   23.3733   -1.4803 N.am      1 UNK        -0.4318 
      5 CA         28.6493   23.7672   -0.7718 C.3       1 UNK         0.0824 
      6 C6         28.8215   23.6819    0.7647 C.3       12 UNK        -0.0944 
      7 S7         30.0409   24.8764    1.3968 S.3       12 UNK        -0.2672 
      8 C8         30.2911   24.2193    3.0761 C.3       12 UNK         0.0333 
      9 C9         30.3399   25.3502    4.0877 C.ar      12 UNK        -0.0807 
     10 C10        31.5619   25.9134    4.4600 C.ar      12 UNK        -0.0894 
     11 C11        31.6059   26.9874    5.3528 C.ar      12 UNK        -0.0804 
     12 C12        30.4108   27.4979    5.8716 C.ar      12 UNK        -0.0824 
     13 C13        29.1800   26.9314    5.5204 C.ar      12 UNK        -0.0762 
     14 C14        29.1560   25.8456    4.6386 C.ar      12 UNK        -0.0782 
     15 C15        27.8883   27.4996    6.1058 C.3       12 UNK         0.0230 
     16 S16        26.5203   27.6481    4.9010 S.3       12 UNK        -0.2608 
     17 C17        27.2777   28.6654    3.5896 C.3       12 UNK        -0.0989 
     18 CA         27.3103   27.9274    2.2254 C.3       5 UNK         0.0716 
     19 N          25.9586   27.6937    1.7065 N.am      5 UNK        -0.4135 
     20 C          25.6228   26.7918    0.7767 C.2       4 UNK         0.5031 
     21 O          26.4274   26.0258    0.2391 O.2       4 UNK        -0.5229 
     22 CA         24.1520   26.7935    0.3307 C.3       4 UNK         0.0329 
     23 CB         23.9483   27.7941   -0.8183 C.3       4 UNK        -0.2001 
     24 N          23.7354   25.4679   -0.1221 N.am      4 UNK        -0.4303 
     25 C          23.4801   24.4243    0.6743 C.2       3 UNK         0.5044 
     26 O          23.4575   24.4932    1.9039 O.2       3 UNK        -0.5152 
     27 CA         23.2191   23.0677   -0.0069 C.3       3 UNK         0.0319 
     28 CB         21.7773   22.9712   -0.5441 C.3       3 UNK        -0.2001 
     29 N          24.2155   22.7166   -1.0299 N.am      3 UNK        -0.4354 
     30 C          24.4383   23.2779   -2.2269 C.2       2 UNK         0.4964 
     31 O          23.7716   24.2062   -2.6887 O.2       2 UNK        -0.5047 
     32 CA         25.6661   22.7560   -2.9959 C.3       2 UNK         0.0288 
     33 CB         25.6174   23.1095   -4.4938 C.3       2 UNK        -0.2113 
     34 N          26.8953   23.3042   -2.4215 N.am      2 UNK        -0.4145 
     35 C          27.4402   22.9397   -1.2540 C.2       1 UNK         0.5006 
     36 O          27.0258   21.9927   -0.5796 O.2       1 UNK        -0.5103 
     37 C          28.1696   28.6779    1.1862 C.2       5 UNK         0.5055 
     38 O          28.4887   29.8518    1.3768 O.2       5 UNK        -0.5220 
     39 N          28.5221   27.9935    0.0916 N.am      6 UNK        -0.4450 
     40 CA         29.3334   28.5278   -1.0067 C.3       6 UNK         0.0367 
     41 CB         29.3652   27.5070   -2.1532 C.3       6 UNK        -0.1929 
     42 C          30.7676   28.9011   -0.5893 C.2       6 UNK         0.5070 
     43 O          31.3456   29.8212   -1.1674 O.2       6 UNK        -0.5237 
     44 N          31.3081   28.1905    0.4086 N.am      7 UNK        -0.4739 
     45 CA         32.6589   28.3751    0.9413 C.3       7 UNK         0.0276 
     46 CB         33.2986   26.9893    1.1408 C.3       7 UNK        -0.1927 
     47 C          32.6860   29.2061    2.2385 C.2       7 UNK         0.5013 
     48 O          33.6960   29.1612    2.9420 O.2       7 UNK        -0.5193 
     49 N          31.6086   29.9562    2.5365 N.am      8 UNK        -0.4253 
     50 CA         31.3964   30.7453    3.7643 C.3       8 UNK         0.0242 
     51 CB         30.1424   31.6217    3.6171 C.3       8 UNK        -0.2000 
     52 C          32.5766   31.6236    4.2144 C.2       8 UNK         0.4948 
     53 O          32.8069   31.7476    5.4177 O.2       8 UNK        -0.5275 
     54 N          33.3310   32.1733    3.2527 N.am      9 UNK        -0.4246 
     55 CA         34.5435   32.9676    3.4731 C.3       9 UNK         0.0261 
     56 CB         35.0673   33.4701    2.1179 C.3       9 UNK        -0.1959 
     57 C          35.6621   32.2357    4.2425 C.2       9 UNK         0.5033 
     58 O          36.4813   32.9049    4.8738 O.2       9 UNK        -0.5390 
     59 N          35.6788   30.8948    4.1993 N.am      10 UNK        -0.4215 
     60 CA         36.6049   30.0623    4.9705 C.3       10 UNK         0.0240 
     61 CB         36.7393   28.6912    4.2871 C.3       10 UNK        -0.1982 
     62 C          36.1861   29.8906    6.4437 C.2       10 UNK         0.4970 
     63 O          37.0322   29.5077    7.2531 O.2       10 UNK        -0.4916 
     64 N          34.9123   30.1526    6.7651 N.am      11 UNK        -0.4279 
     65 CA         34.3292   30.0021    8.1077 C.3       11 UNK         0.1003 
     66 C          34.0640   31.3719    8.7850 C.2       11 UNK         0.5709 
     67 N          33.6779   32.4055    8.0469 N.am      11 UNK        -0.7358 
     68 O          34.2226   31.5014    9.9965 O.2       11 UNK        -0.4999 
     69 C69        33.0334   29.1482    8.0775 C.3       12 UNK        -0.0954 
     70 S70        33.3359   27.4460    7.4901 S.3       12 UNK        -0.2268 
     71 C71        32.9466   27.6077    5.7196 C.3       12 UNK         0.0203 
     72 H72        32.0479   22.6019   -2.5638 H         1 UNK         0.0888 
     73 H73        32.1001   24.0040   -3.6343 H         1 UNK         0.0888 
     74 H74        31.3057   22.5180   -4.1633 H         1 UNK         0.0888 
     75 H75        30.5206   22.8183   -0.9421 H         1 UNK         0.3017 
     76 H76        28.4345   24.8085   -1.0177 H         1 UNK         0.0873 
     77 H77        29.1172   22.6735    1.0614 H         1 UNK         0.0745 
     78 H78        27.8749   23.8880    1.2691 H         1 UNK         0.0745 
     79 H79        29.4875   23.5307    3.3418 H         1 UNK         0.0705 
     80 H80        31.2140   23.6378    3.1009 H         1 UNK         0.0705 
     81 H81        32.4795   25.5222    4.0427 H         1 UNK         0.1334 
     82 H82        30.4423   28.3343    6.5557 H         1 UNK         0.1417 
     83 H83        28.2111   25.4001    4.3583 H         1 UNK         0.1562 
     84 H84        28.0674   28.4848    6.5396 H         1 UNK         0.0748 
     85 H85        27.5646   26.8568    6.9252 H         1 UNK         0.0748 
     86 H86        28.2886   28.9355    3.8981 H         1 UNK         0.0940 
     87 H87        26.7282   29.6055    3.5121 H         1 UNK         0.0940 
     88 H88        27.7874   26.9576    2.3804 H         1 UNK         0.0703 
     89 H89        25.2391   28.2966    2.0776 H         1 UNK         0.3081 
     90 H90        23.5237   27.0880    1.1741 H         1 UNK         0.0719 
     91 H91        24.5559   27.5374   -1.6876 H         1 UNK         0.0809 
     92 H92        22.9060   27.8256   -1.1364 H         1 UNK         0.0809 
     93 H93        24.2241   28.8048   -0.5146 H         1 UNK         0.0809 
     94 H94        23.7615   25.2897   -1.1220 H         1 UNK         0.2990 
     95 H95        23.3246   22.3072    0.7686 H         1 UNK         0.0690 
     96 H96        21.5799   21.9894   -0.9744 H         1 UNK         0.0788 
     97 H97        21.5708   23.7203   -1.3088 H         1 UNK         0.0788 
     98 H98        21.0551   23.1244    0.2588 H         1 UNK         0.0788 
     99 H99        24.9106   22.0432   -0.7241 H         1 UNK         0.2993 
    100 H100       25.6851   21.6674   -2.9068 H         1 UNK         0.0949 
    101 H101       24.7084   22.7225   -4.9563 H         1 UNK         0.0767 
    102 H102       25.6343   24.1880   -4.6577 H         1 UNK         0.0767 
    103 H103       26.4631   22.6776   -5.0294 H         1 UNK         0.0767 
    104 H104       27.3576   24.0403   -2.9431 H         1 UNK         0.3013 
    105 H105       28.1448   27.0566   -0.0127 H         1 UNK         0.3121 
    106 H106       28.8462   29.4363   -1.3671 H         1 UNK         0.0774 
    107 H107       28.3612   27.2343   -2.4789 H         1 UNK         0.0815 
    108 H108       29.8849   26.5950   -1.8591 H         1 UNK         0.0815 
    109 H109       29.8887   27.9110   -3.0207 H         1 UNK         0.0815 
    110 H110       30.7560   27.4527    0.8256 H         1 UNK         0.2987 
    111 H111       33.2715   28.9176    0.2182 H         1 UNK         0.0949 
    112 H112       32.7486   26.3946    1.8686 H         1 UNK         0.0806 
    113 H113       33.3253   26.4286    0.2064 H         1 UNK         0.0806 
    114 H114       34.3272   27.0721    1.4947 H         1 UNK         0.0806 
    115 H115       30.8306   29.9299    1.8898 H         1 UNK         0.3010 
    116 H116       31.2108   30.0324    4.5682 H         1 UNK         0.0829 
    117 H117       29.2388   31.0207    3.5470 H         1 UNK         0.0813 
    118 H118       30.0138   32.2762    4.4807 H         1 UNK         0.0813 
    119 H119       30.1934   32.2559    2.7314 H         1 UNK         0.0813 
    120 H120       33.0695   32.0017    2.2928 H         1 UNK         0.3038 
    121 H121       34.2575   33.8342    4.0727 H         1 UNK         0.0769 
    122 H122       35.3410   32.6441    1.4601 H         1 UNK         0.0811 
    123 H123       35.9552   34.0907    2.2480 H         1 UNK         0.0811 
    124 H124       34.3230   34.0786    1.6039 H         1 UNK         0.0811 
    125 H125       34.9641   30.4021    3.6664 H         1 UNK         0.3204 
    126 H126       37.5887   30.5366    4.9646 H         1 UNK         0.0748 
    127 H127       37.0713   28.7932    3.2538 H         1 UNK         0.0771 
    128 H128       37.4707   28.0675    4.8027 H         1 UNK         0.0771 
    129 H129       35.7947   28.1472    4.2824 H         1 UNK         0.0771 
    130 H130       34.2929   30.5392    6.0632 H         1 UNK         0.2980 
    131 H131       35.0375   29.4794    8.7534 H         1 UNK         0.0545 
    132 H132       33.5150   33.2952    8.4897 H         1 UNK         0.3459 
    133 H133       33.4569   32.2798    7.0625 H         1 UNK         0.3459 
    134 H134       32.6088   29.0702    9.0801 H         1 UNK         0.0616 
    135 H135       32.2685   29.6251    7.4623 H         1 UNK         0.0616 
    136 H136       32.9521   28.6559    5.4266 H         1 UNK         0.0634 
    137 H137       33.7514   27.1370    5.1536 H         1 UNK         0.0634 
@<TRIPOS>BOND
     1    1    2 1    
     2    1   72 1    
     3    1   73 1    
     4    1   74 1    
     5    2    3 2    
     6    2    4 am   BACKBONE|DICT|INTERRES
     7    4    5 1    
     8    4   75 1    
     9    5    6 1    
    10    5   35 1    
    11    5   76 1    
    12    6    7 1    
    13    6   77 1    
    14    6   78 1    
    15    7    8 1    
    16    8    9 1    
    17    8   79 1    
    18    8   80 1    
    19    9   10 ar   
    20    9   14 ar   
    21   10   11 ar   
    22   10   81 1    
    23   11   12 ar   
    24   11   71 1    
    25   12   13 ar   
    26   12   82 1    
    27   13   14 ar   
    28   13   15 1    
    29   14   83 1    
    30   15   16 1    
    31   15   84 1    
    32   15   85 1    
    33   16   17 1    
    34   17   18 1    
    35   17   86 1    
    36   17   87 1    
    37   18   19 1    
    38   18   37 1    
    39   18   88 1    
    40   19   20 am   BACKBONE|DICT|INTERRES
    41   19   89 1    
    42   20   21 2    
    43   20   22 1    
    44   22   23 1    
    45   22   24 1    
    46   22   90 1    
    47   23   91 1    
    48   23   92 1    
    49   23   93 1    
    50   24   25 am   BACKBONE|DICT|INTERRES
    51   24   94 1    
    52   25   26 2    
    53   25   27 1    
    54   27   28 1    
    55   27   29 1    
    56   27   95 1    
    57   28   96 1    
    58   28   97 1    
    59   28   98 1    
    60   29   30 am   BACKBONE|DICT|INTERRES
    61   29   99 1    
    62   30   31 2    
    63   30   32 1    
    64   32   33 1    
    65   32   34 1    
    66   32  100 1    
    67   33  101 1    
    68   33  102 1    
    69   33  103 1    
    70   34   35 am   BACKBONE|DICT|INTERRES
    71   34  104 1    
    72   35   36 2    
    73   37   38 2    
    74   37   39 am   BACKBONE|DICT|INTERRES
    75   39   40 1    
    76   39  105 1    
    77   40   41 1    
    78   40   42 1    
    79   40  106 1    
    80   41  107 1    
    81   41  108 1    
    82   41  109 1    
    83   42   43 2    
    84   42   44 am   BACKBONE|DICT|INTERRES
    85   44   45 1    
    86   44  110 1    
    87   45   46 1    
    88   45   47 1    
    89   45  111 1    
    90   46  112 1    
    91   46  113 1    
    92   46  114 1    
    93   47   48 2    
    94   47   49 am   BACKBONE|DICT|INTERRES
    95   49   50 1    
    96   49  115 1    
    97   50   51 1    
    98   50   52 1    
    99   50  116 1    
   100   51  117 1    
   101   51  118 1    
   102   51  119 1    
   103   52   53 2    
   104   52   54 am   BACKBONE|DICT|INTERRES
   105   54   55 1    
   106   54  120 1    
   107   55   56 1    
   108   55   57 1    
   109   55  121 1    
   110   56  122 1    
   111   56  123 1    
   112   56  124 1    
   113   57   58 2    
   114   57   59 am   BACKBONE|DICT|INTERRES
   115   59   60 1    
   116   59  125 1    
   117   60   61 1    
   118   60   62 1    
   119   60  126 1    
   120   61  127 1    
   121   61  128 1    
   122   61  129 1    
   123   62   63 2    
   124   62   64 am   BACKBONE|DICT|INTERRES
   125   64   65 1    
   126   64  130 1    
   127   65   66 1    
   128   65   69 1    
   129   65  131 1    
   130   66   67 am   BACKBONE|DICT|INTERRES
   131   66   68 2    
   132   67  132 1    
   133   67  133 1    
   134   69   70 1    
   135   69  134 1    
   136   69  135 1    
   137   70   71 1    
   138   71  136 1    
   139   71  137 1    
@<TRIPOS>SUBSTRUCTURE
     1 UNK         1 GROUP             0       ****    0 ROOT    
