@<TRIPOS>MOLECULE
3R136
137   139    1
SMALL
USER_CHARGES


@<TRIPOS>ATOM
      1 CA         25.4065   20.6694    2.9646 C.3       0 UNK        -0.1979 
      2 C          25.9450   21.7049    1.9892 C.2       0 UNK         0.4864 
      3 O          25.2618   22.0462    1.0223 O.2       0 UNK        -0.5359 
      4 N          27.1588   22.2182    2.2425 N.am      1 UNK        -0.4318 
      5 CA         27.8687   23.1923    1.4007 C.3       1 UNK         0.0824 
      6 C6         29.2716   23.5283    1.9549 C.3       12 UNK        -0.0944 
      7 S7         30.4578   22.1781    1.6649 S.3       12 UNK        -0.2672 
      8 C8         31.8652   22.6884    2.7112 C.3       12 UNK         0.0333 
      9 C9         32.2851   24.1483    2.5408 C.ar      12 UNK        -0.0807 
     10 C10        32.5820   24.9105    3.6752 C.ar      12 UNK        -0.0894 
     11 C11        32.9770   26.2447    3.5544 C.ar      12 UNK        -0.0804 
     12 C12        33.0617   26.8242    2.2858 C.ar      12 UNK        -0.0824 
     13 C13        32.7539   26.0825    1.1427 C.ar      12 UNK        -0.0762 
     14 C14        32.3878   24.7390    1.2739 C.ar      12 UNK        -0.0782 
     15 C15        32.8278   26.7394   -0.2286 C.3       12 UNK         0.0230 
     16 S16        31.5400   28.0124   -0.4432 S.3       12 UNK        -0.2608 
     17 C17        30.0270   27.0034   -0.6126 C.3       12 UNK        -0.0989 
     18 CA         28.9054   27.7320   -1.4046 C.3       5 UNK         0.0716 
     19 N          27.9470   26.7677   -1.9405 N.am      5 UNK        -0.4135 
     20 C          27.2261   26.9253   -3.0553 C.2       4 UNK         0.5031 
     21 O          27.3557   27.8781   -3.8257 O.2       4 UNK        -0.5229 
     22 CA         26.1883   25.8394   -3.3740 C.3       4 UNK         0.0329 
     23 CB         26.8708   24.5752   -3.9245 C.3       4 UNK        -0.2001 
     24 N          25.3699   25.4857   -2.2084 N.am      4 UNK        -0.4303 
     25 C          24.0336   25.3603   -2.2291 C.2       3 UNK         0.5044 
     26 O          23.3455   25.5790   -3.2276 O.2       3 UNK        -0.5152 
     27 CA         23.3223   24.8852   -0.9446 C.3       3 UNK         0.0319 
     28 CB         22.8716   23.4229   -1.0949 C.3       3 UNK        -0.2001 
     29 N          24.1414   25.0035    0.2619 N.am      3 UNK        -0.4354 
     30 C          24.4036   26.1580    0.8926 C.2       2 UNK         0.4964 
     31 O          23.8759   27.2279    0.5877 O.2       2 UNK        -0.5047 
     32 CA         25.4241   26.1291    2.0513 C.3       2 UNK         0.0288 
     33 CB         24.7154   26.3107    3.4037 C.3       2 UNK        -0.2113 
     34 N          26.2637   24.9260    2.1158 N.am      2 UNK        -0.4145 
     35 C          27.0880   24.4951    1.1492 C.2       1 UNK         0.5006 
     36 O          27.2246   25.0616    0.0653 O.2       1 UNK        -0.5103 
     37 C          28.1587   28.7453   -0.5141 C.2       5 UNK         0.5055 
     38 O          27.0493   28.4684   -0.0525 O.2       5 UNK        -0.5220 
     39 N          28.8082   29.8822   -0.2328 N.am      6 UNK        -0.4450 
     40 CA         28.3817   30.8270    0.8050 C.3       6 UNK         0.0367 
     41 CB         29.1678   32.1391    0.6563 C.3       6 UNK        -0.1929 
     42 C          28.5401   30.2496    2.2269 C.2       6 UNK         0.5070 
     43 O          27.7782   30.6306    3.1164 O.2       6 UNK        -0.5237 
     44 N          29.5033   29.3269    2.3911 N.am      7 UNK        -0.4739 
     45 CA         29.8511   28.5928    3.6129 C.3       7 UNK         0.0276 
     46 CB         28.6935   27.6558    4.0259 C.3       7 UNK        -0.1927 
     47 C          30.3431   29.5097    4.7537 C.2       7 UNK         0.5013 
     48 O          30.7069   30.6628    4.5049 O.2       7 UNK        -0.5193 
     49 N          30.3966   28.9638    5.9787 N.am      8 UNK        -0.4253 
     50 CA         30.8242   29.6171    7.2227 C.3       8 UNK         0.0242 
     51 CB         29.7279   30.5907    7.7133 C.3       8 UNK        -0.2000 
     52 C          32.2194   30.2613    7.0951 C.2       8 UNK         0.4948 
     53 O          33.2148   29.5387    7.0501 O.2       8 UNK        -0.5275 
     54 N          32.2666   31.5972    7.0061 N.am      9 UNK        -0.4246 
     55 CA         33.4820   32.3945    6.8339 C.3       9 UNK         0.0261 
     56 CB         33.1373   33.8808    7.0223 C.3       9 UNK        -0.1959 
     57 C          34.2037   32.1787    5.4901 C.2       9 UNK         0.5033 
     58 O          35.3969   32.4757    5.4131 O.2       9 UNK        -0.5390 
     59 N          33.5063   31.6560    4.4671 N.am      10 UNK        -0.4215 
     60 CA         34.0394   31.4204    3.1166 C.3       10 UNK         0.0240 
     61 CB         32.8987   30.9736    2.1880 C.3       10 UNK        -0.1982 
     62 C          35.2158   30.4264    3.0373 C.2       10 UNK         0.4970 
     63 O          35.9248   30.4288    2.0303 O.2       10 UNK        -0.4916 
     64 N          35.4069   29.6142    4.0824 N.am      11 UNK        -0.4279 
     65 CA         36.5349   28.6899    4.2558 C.3       11 UNK         0.1003 
     66 C          37.4139   29.0306    5.4951 C.2       11 UNK         0.5709 
     67 N          37.2680   30.1981    6.1141 N.am      11 UNK        -0.7358 
     68 O          38.2675   28.2387    5.8882 O.2       11 UNK        -0.4999 
     69 C69        36.0749   27.2078    4.1883 C.3       12 UNK        -0.0954 
     70 S70        34.9187   26.6951    5.5083 S.3       12 UNK        -0.2268 
     71 C71        33.2837   27.0678    4.7961 C.3       12 UNK         0.0203 
     72 H72        25.2113   19.7321    2.4445 H         1 UNK         0.0888 
     73 H73        24.4714   21.0176    3.4023 H         1 UNK         0.0888 
     74 H74        26.1071   20.4684    3.7749 H         1 UNK         0.0888 
     75 H75        27.6746   21.8850    3.0448 H         1 UNK         0.3017 
     76 H76        27.9881   22.7284    0.4189 H         1 UNK         0.0873 
     77 H77        29.6763   24.4164    1.4663 H         1 UNK         0.0745 
     78 H78        29.2286   23.7609    3.0208 H         1 UNK         0.0745 
     79 H79        31.5988   22.4891    3.7504 H         1 UNK         0.0705 
     80 H80        32.7196   22.0492    2.4854 H         1 UNK         0.0705 
     81 H81        32.5128   24.4656    4.6588 H         1 UNK         0.1334 
     82 H82        33.3628   27.8571    2.1832 H         1 UNK         0.1417 
     83 H83        32.1624   24.1556    0.3916 H         1 UNK         0.1562 
     84 H84        32.7501   25.9997   -1.0269 H         1 UNK         0.0748 
     85 H85        33.8059   27.2090   -0.3434 H         1 UNK         0.0748 
     86 H86        29.6851   26.6901    0.3764 H         1 UNK         0.0940 
     87 H87        30.3024   26.0848   -1.1336 H         1 UNK         0.0940 
     88 H88        29.3557   28.2722   -2.2406 H         1 UNK         0.0703 
     89 H89        27.7111   26.0098   -1.3022 H         1 UNK         0.3081 
     90 H90        25.5541   26.2465   -4.1644 H         1 UNK         0.0719 
     91 H91        27.5018   24.0964   -3.1744 H         1 UNK         0.0809 
     92 H92        26.1346   23.8434   -4.2573 H         1 UNK         0.0809 
     93 H93        27.5021   24.8123   -4.7820 H         1 UNK         0.0809 
     94 H94        25.8608   25.3213   -1.3352 H         1 UNK         0.2990 
     95 H95        22.4303   25.5025   -0.8184 H         1 UNK         0.0690 
     96 H96        22.3194   23.0849   -0.2178 H         1 UNK         0.0788 
     97 H97        23.7209   22.7526   -1.2344 H         1 UNK         0.0788 
     98 H98        22.2148   23.3016   -1.9575 H         1 UNK         0.0788 
     99 H99        24.5962   24.1561    0.5826 H         1 UNK         0.2993 
    100 H100       26.0906   26.9804    1.9007 H         1 UNK         0.0949 
    101 H101       24.1076   27.2168    3.4082 H         1 UNK         0.0767 
    102 H102       24.0542   25.4727    3.6276 H         1 UNK         0.0767 
    103 H103       25.4334   26.4030    4.2190 H         1 UNK         0.0767 
    104 H104       26.2001   24.3775    2.9609 H         1 UNK         0.3013 
    105 H105       29.7167   30.0359   -0.6485 H         1 UNK         0.3121 
    106 H106       27.3218   31.0457    0.6562 H         1 UNK         0.0774 
    107 H107       28.9678   32.6137   -0.3045 H         1 UNK         0.0815 
    108 H108       30.2427   31.9780    0.7333 H         1 UNK         0.0815 
    109 H109       28.8879   32.8518    1.4335 H         1 UNK         0.0815 
    110 H110       30.0811   29.1218    1.5885 H         1 UNK         0.2987 
    111 H111       30.6993   27.9648    3.3441 H         1 UNK         0.0949 
    112 H112       27.8428   28.2122    4.4214 H         1 UNK         0.0806 
    113 H113       28.3404   27.0721    3.1755 H         1 UNK         0.0806 
    114 H114       29.0043   26.9406    4.7877 H         1 UNK         0.0806 
    115 H115       30.1126   27.9996    6.0767 H         1 UNK         0.3010 
    116 H116       30.9240   28.8301    7.9720 H         1 UNK         0.0829 
    117 H117       28.8000   30.0568    7.9188 H         1 UNK         0.0813 
    118 H118       30.0216   31.0836    8.6413 H         1 UNK         0.0813 
    119 H119       29.4998   31.3647    6.9794 H         1 UNK         0.0813 
    120 H120       31.3911   32.1006    7.0108 H         1 UNK         0.3038 
    121 H121       34.1803   32.1038    7.6217 H         1 UNK         0.0769 
    122 H122       32.4226   34.2274    6.2747 H         1 UNK         0.0811 
    123 H123       34.0290   34.5032    6.9331 H         1 UNK         0.0811 
    124 H124       32.7121   34.0690    8.0083 H         1 UNK         0.0811 
    125 H125       32.5261   31.4231    4.6118 H         1 UNK         0.3204 
    126 H126       34.4144   32.3783    2.7506 H         1 UNK         0.0748 
    127 H127       32.0943   31.7083    2.1754 H         1 UNK         0.0771 
    128 H128       33.2469   30.8547    1.1609 H         1 UNK         0.0771 
    129 H129       32.4744   30.0203    2.5006 H         1 UNK         0.0771 
    130 H130       34.7909   29.6920    4.8800 H         1 UNK         0.2980 
    131 H131       37.2251   28.8254    3.4217 H         1 UNK         0.0545 
    132 H132       37.8533   30.4041    6.9078 H         1 UNK         0.3459 
    133 H133       36.6182   30.8985    5.7751 H         1 UNK         0.3459 
    134 H134       35.6305   27.0075    3.2144 H         1 UNK         0.0616 
    135 H135       36.9425   26.5480    4.2388 H         1 UNK         0.0616 
    136 H136       33.2103   28.1330    4.5789 H         1 UNK         0.0634 
    137 H137       32.5272   26.8674    5.5557 H         1 UNK         0.0634 
@<TRIPOS>BOND
     1    1    2 1    
     2    1   72 1    
     3    1   73 1    
     4    1   74 1    
     5    2    3 2    
     6    2    4 am   BACKBONE|DICT|INTERRES
     7    4    5 1    
     8    4   75 1    
     9    5    6 1    
    10    5   35 1    
    11    5   76 1    
    12    6    7 1    
    13    6   77 1    
    14    6   78 1    
    15    7    8 1    
    16    8    9 1    
    17    8   79 1    
    18    8   80 1    
    19    9   10 ar   
    20    9   14 ar   
    21   10   11 ar   
    22   10   81 1    
    23   11   12 ar   
    24   11   71 1    
    25   12   13 ar   
    26   12   82 1    
    27   13   14 ar   
    28   13   15 1    
    29   14   83 1    
    30   15   16 1    
    31   15   84 1    
    32   15   85 1    
    33   16   17 1    
    34   17   18 1    
    35   17   86 1    
    36   17   87 1    
    37   18   19 1    
    38   18   37 1    
    39   18   88 1    
    40   19   20 am   BACKBONE|DICT|INTERRES
    41   19   89 1    
    42   20   21 2    
    43   20   22 1    
    44   22   23 1    
    45   22   24 1    
    46   22   90 1    
    47   23   91 1    
    48   23   92 1    
    49   23   93 1    
    50   24   25 am   BACKBONE|DICT|INTERRES
    51   24   94 1    
    52   25   26 2    
    53   25   27 1    
    54   27   28 1    
    55   27   29 1    
    56   27   95 1    
    57   28   96 1    
    58   28   97 1    
    59   28   98 1    
    60   29   30 am   BACKBONE|DICT|INTERRES
    61   29   99 1    
    62   30   31 2    
    63   30   32 1    
    64   32   33 1    
    65   32   34 1    
    66   32  100 1    
    67   33  101 1    
    68   33  102 1    
    69   33  103 1    
    70   34   35 am   BACKBONE|DICT|INTERRES
    71   34  104 1    
    72   35   36 2    
    73   37   38 2    
    74   37   39 am   BACKBONE|DICT|INTERRES
    75   39   40 1    
    76   39  105 1    
    77   40   41 1    
    78   40   42 1    
    79   40  106 1    
    80   41  107 1    
    81   41  108 1    
    82   41  109 1    
    83   42   43 2    
    84   42   44 am   BACKBONE|DICT|INTERRES
    85   44   45 1    
    86   44  110 1    
    87   45   46 1    
    88   45   47 1    
    89   45  111 1    
    90   46  112 1    
    91   46  113 1    
    92   46  114 1    
    93   47   48 2    
    94   47   49 am   BACKBONE|DICT|INTERRES
    95   49   50 1    
    96   49  115 1    
    97   50   51 1    
    98   50   52 1    
    99   50  116 1    
   100   51  117 1    
   101   51  118 1    
   102   51  119 1    
   103   52   53 2    
   104   52   54 am   BACKBONE|DICT|INTERRES
   105   54   55 1    
   106   54  120 1    
   107   55   56 1    
   108   55   57 1    
   109   55  121 1    
   110   56  122 1    
   111   56  123 1    
   112   56  124 1    
   113   57   58 2    
   114   57   59 am   BACKBONE|DICT|INTERRES
   115   59   60 1    
   116   59  125 1    
   117   60   61 1    
   118   60   62 1    
   119   60  126 1    
   120   61  127 1    
   121   61  128 1    
   122   61  129 1    
   123   62   63 2    
   124   62   64 am   BACKBONE|DICT|INTERRES
   125   64   65 1    
   126   64  130 1    
   127   65   66 1    
   128   65   69 1    
   129   65  131 1    
   130   66   67 am   BACKBONE|DICT|INTERRES
   131   66   68 2    
   132   67  132 1    
   133   67  133 1    
   134   69   70 1    
   135   69  134 1    
   136   69  135 1    
   137   70   71 1    
   138   71  136 1    
   139   71  137 1    
@<TRIPOS>SUBSTRUCTURE
     1 UNK         1 GROUP             0       ****    0 ROOT    
