@<TRIPOS>MOLECULE
3R136
137   139    1
SMALL
USER_CHARGES


@<TRIPOS>ATOM
      1 CA         27.3933   26.4191    3.4421 C.3       0 UNK        -0.1979 
      2 C          27.7586   25.2420    2.5515 C.2       0 UNK         0.4864 
      3 O          28.0662   25.4473    1.3767 O.2       0 UNK        -0.5359 
      4 N          27.7306   24.0204    3.1095 N.am      1 UNK        -0.4318 
      5 CA         28.0792   22.7420    2.4675 C.3       1 UNK         0.0824 
      6 C6         29.5966   22.6029    2.1682 C.3       12 UNK        -0.0944 
      7 S7         30.5992   22.4786    3.6918 S.3       12 UNK        -0.2672 
      8 C8         31.1381   24.1927    3.9935 C.3       12 UNK         0.0333 
      9 C9         32.1515   24.6735    2.9669 C.ar      12 UNK        -0.0807 
     10 C10        33.5096   24.3850    3.1241 C.ar      12 UNK        -0.0894 
     11 C11        34.4453   24.8437    2.1907 C.ar      12 UNK        -0.0804 
     12 C12        34.0104   25.5994    1.0958 C.ar      12 UNK        -0.0824 
     13 C13        32.6501   25.8725    0.9166 C.ar      12 UNK        -0.0762 
     14 C14        31.7293   25.4084    1.8578 C.ar      12 UNK        -0.0782 
     15 C15        32.1634   26.5979   -0.3297 C.3       12 UNK         0.0230 
     16 S16        31.9914   28.3983   -0.1084 S.3       12 UNK        -0.2608 
     17 C17        30.4667   28.5843    0.8816 C.3       12 UNK        -0.0989 
     18 CA         29.1865   28.7226    0.0162 C.3       5 UNK         0.0716 
     19 N          28.8084   27.4438   -0.5797 N.am      5 UNK        -0.4135 
     20 C          28.7900   27.1397   -1.8807 C.2       4 UNK         0.5031 
     21 O          29.2243   27.8673   -2.7745 O.2       4 UNK        -0.5229 
     22 CA         28.1449   25.7904   -2.2425 C.3       4 UNK         0.0329 
     23 CB         29.1527   24.6400   -2.0894 C.3       4 UNK        -0.2001 
     24 N          26.9712   25.5222   -1.4088 N.am      4 UNK        -0.4303 
     25 C          25.7941   26.1507   -1.5402 C.2       3 UNK         0.5044 
     26 O          25.5345   26.9143   -2.4727 O.2       3 UNK        -0.5152 
     27 CA         24.7430   25.9071   -0.4371 C.3       3 UNK         0.0319 
     28 CB         23.3027   26.2174   -0.8990 C.3       3 UNK        -0.2001 
     29 N          24.8206   24.5758    0.1764 N.am      3 UNK        -0.4354 
     30 C          24.6451   23.3867   -0.4218 C.2       2 UNK         0.4964 
     31 O          24.3651   23.2462   -1.6134 O.2       2 UNK        -0.5047 
     32 CA         24.8123   22.1500    0.4857 C.3       2 UNK         0.0288 
     33 CB         24.9790   20.8338   -0.3058 C.3       2 UNK        -0.2113 
     34 N          25.8865   22.3137    1.4776 N.am      2 UNK        -0.4145 
     35 C          27.1953   22.4845    1.2282 C.2       1 UNK         0.5006 
     36 O          27.6877   22.4907    0.0985 O.2       1 UNK        -0.5103 
     37 C          27.9756   29.2221    0.8365 C.2       5 UNK         0.5055 
     38 O          26.9334   28.5600    0.8707 O.2       5 UNK        -0.5220 
     39 N          28.1182   30.3897    1.4731 N.am      6 UNK        -0.4450 
     40 CA         27.1188   30.9783    2.3661 C.3       6 UNK         0.0367 
     41 CB         26.8483   32.4260    1.9058 C.3       6 UNK        -0.1929 
     42 C          27.6347   30.8845    3.8133 C.2       6 UNK         0.5070 
     43 O          28.3762   29.9559    4.1395 O.2       6 UNK        -0.5237 
     44 N          27.2671   31.8574    4.6592 N.am      7 UNK        -0.4739 
     45 CA         27.9131   32.0865    5.9578 C.3       7 UNK         0.0276 
     46 CB         27.0568   33.0494    6.7959 C.3       7 UNK        -0.1927 
     47 C          29.3454   32.6327    5.7912 C.2       7 UNK         0.5013 
     48 O          30.2089   32.3483    6.6217 O.2       7 UNK        -0.5193 
     49 N          29.5648   33.3837    4.7039 N.am      8 UNK        -0.4253 
     50 CA         30.8729   33.7980    4.2066 C.3       8 UNK         0.0242 
     51 CB         30.7224   35.1532    3.4954 C.3       8 UNK        -0.2000 
     52 C          31.4209   32.7422    3.2330 C.2       8 UNK         0.4948 
     53 O          30.6526   31.9515    2.6774 O.2       8 UNK        -0.5275 
     54 N          32.7455   32.7608    3.0376 N.am      9 UNK        -0.4246 
     55 CA         33.5539   31.9101    2.1485 C.3       9 UNK         0.0261 
     56 CB         33.0901   32.0187    0.6812 C.3       9 UNK        -0.1959 
     57 C          33.6860   30.4358    2.5790 C.2       9 UNK         0.5033 
     58 O          34.6939   29.8164    2.2349 O.2       9 UNK        -0.5390 
     59 N          32.7060   29.9024    3.3215 N.am      10 UNK        -0.4215 
     60 CA         32.6986   28.5415    3.8614 C.3       10 UNK         0.0240 
     61 CB         31.3516   28.2675    4.5496 C.3       10 UNK        -0.1982 
     62 C          33.8559   28.3037    4.8436 C.2       10 UNK         0.4970 
     63 O          34.1230   29.1593    5.6914 O.2       10 UNK        -0.4916 
     64 N          34.5083   27.1457    4.7104 N.am      11 UNK        -0.4279 
     65 CA         35.6398   26.7190    5.5429 C.3       11 UNK         0.1003 
     66 C          35.2311   26.4472    7.0163 C.2       11 UNK         0.5709 
     67 N          36.1117   26.7293    7.9669 N.am      11 UNK        -0.7358 
     68 O          34.1452   25.9439    7.2998 O.2       11 UNK        -0.4999 
     69 C69        36.3616   25.4866    4.9400 C.3       12 UNK        -0.0954 
     70 S70        36.8829   25.7427    3.2084 S.3       12 UNK        -0.2268 
     71 C71        35.9168   24.4741    2.3296 C.3       12 UNK         0.0203 
     72 H72        28.1948   27.1575    3.4346 H         1 UNK         0.0888 
     73 H73        26.4888   26.9012    3.0725 H         1 UNK         0.0888 
     74 H74        27.2220   26.1163    4.4747 H         1 UNK         0.0888 
     75 H75        27.4595   23.9414    4.0799 H         1 UNK         0.3017 
     76 H76        27.8198   21.9577    3.1810 H         1 UNK         0.0873 
     77 H77        29.7842   21.6869    1.6047 H         1 UNK         0.0745 
     78 H78        29.9481   23.4117    1.5302 H         1 UNK         0.0745 
     79 H79        31.5818   24.2459    4.9890 H         1 UNK         0.0705 
     80 H80        30.2740   24.8560    4.0194 H         1 UNK         0.0705 
     81 H81        33.8314   23.7883    3.9665 H         1 UNK         0.1334 
     82 H82        34.7281   25.9458    0.3643 H         1 UNK         0.1417 
     83 H83        30.6757   25.5980    1.7148 H         1 UNK         0.1562 
     84 H84        31.2178   26.1713   -0.6566 H         1 UNK         0.0748 
     85 H85        32.8618   26.4222   -1.1491 H         1 UNK         0.0748 
     86 H86        30.6199   29.4779    1.4867 H         1 UNK         0.0940 
     87 H87        30.3667   27.7685    1.5932 H         1 UNK         0.0940 
     88 H88        29.3604   29.4654   -0.7651 H         1 UNK         0.0703 
     89 H89        28.3839   26.7857    0.0717 H         1 UNK         0.3081 
     90 H90        27.8309   25.8344   -3.2875 H         1 UNK         0.0719 
     91 H91        30.0506   24.8224   -2.6813 H         1 UNK         0.0809 
     92 H92        29.4612   24.5081   -1.0512 H         1 UNK         0.0809 
     93 H93        28.7257   23.6956   -2.4274 H         1 UNK         0.0809 
     94 H94        27.1205   24.9372   -0.5945 H         1 UNK         0.2990 
     95 H95        24.9878   26.6137    0.3575 H         1 UNK         0.0690 
     96 H96        23.0055   25.5954   -1.7438 H         1 UNK         0.0788 
     97 H97        23.2081   27.2576   -1.2130 H         1 UNK         0.0788 
     98 H98        22.5845   26.0581   -0.0948 H         1 UNK         0.0788 
     99 H99        25.0628   24.5684    1.1566 H         1 UNK         0.2993 
    100 H100       23.8827   22.0715    1.0519 H         1 UNK         0.0949 
    101 H101       25.8514   20.8597   -0.9595 H         1 UNK         0.0767 
    102 H102       25.0852   19.9795    0.3627 H         1 UNK         0.0767 
    103 H103       24.1088   20.6444   -0.9356 H         1 UNK         0.0767 
    104 H104       25.5845   22.3390    2.4424 H         1 UNK         0.3013 
    105 H105       29.0251   30.8425    1.4891 H         1 UNK         0.3121 
    106 H106       26.1791   30.4240    2.3253 H         1 UNK         0.0774 
    107 H107       26.0339   32.8837    2.4681 H         1 UNK         0.0815 
    108 H108       27.7310   33.0578    2.0136 H         1 UNK         0.0815 
    109 H109       26.5541   32.4514    0.8564 H         1 UNK         0.0815 
    110 H110       26.6160   32.5607    4.3406 H         1 UNK         0.2987 
    111 H111       27.9806   31.1334    6.4877 H         1 UNK         0.0949 
    112 H112       26.0583   32.6464    6.9661 H         1 UNK         0.0806 
    113 H113       27.5077   33.2179    7.7750 H         1 UNK         0.0806 
    114 H114       26.9502   34.0225    6.3150 H         1 UNK         0.0806 
    115 H115       28.7951   33.5061    4.0645 H         1 UNK         0.3010 
    116 H116       31.5668   33.9079    5.0430 H         1 UNK         0.0829 
    117 H117       30.3212   35.9112    4.1685 H         1 UNK         0.0813 
    118 H118       31.6853   35.5190    3.1365 H         1 UNK         0.0813 
    119 H119       30.0582   35.0860    2.6325 H         1 UNK         0.0813 
    120 H120       33.2804   33.4380    3.5646 H         1 UNK         0.3038 
    121 H121       34.5619   32.3254    2.1970 H         1 UNK         0.0769 
    122 H122       33.7726   31.4837    0.0195 H         1 UNK         0.0811 
    123 H123       32.1001   31.5878    0.5308 H         1 UNK         0.0811 
    124 H124       33.0606   33.0560    0.3482 H         1 UNK         0.0811 
    125 H125       31.8977   30.4818    3.5122 H         1 UNK         0.3204 
    126 H126       32.8059   27.8584    3.0173 H         1 UNK         0.0748 
    127 H127       31.3150   27.2526    4.9473 H         1 UNK         0.0771 
    128 H128       31.1782   28.9517    5.3815 H         1 UNK         0.0771 
    129 H129       30.5179   28.3727    3.8577 H         1 UNK         0.0771 
    130 H130       34.2288   26.4987    3.9866 H         1 UNK         0.2980 
    131 H131       36.3515   27.5473    5.5467 H         1 UNK         0.0545 
    132 H132       37.0102   27.1291    7.7448 H         1 UNK         0.3459 
    133 H133       35.8701   26.5442    8.9279 H         1 UNK         0.3459 
    134 H134       37.2598   25.2616    5.5179 H         1 UNK         0.0616 
    135 H135       35.7344   24.5977    5.0117 H         1 UNK         0.0616 
    136 H136       36.0248   23.5146    2.8379 H         1 UNK         0.0634 
    137 H137       36.3512   24.3365    1.3383 H         1 UNK         0.0634 
@<TRIPOS>BOND
     1    1    2 1    
     2    1   72 1    
     3    1   73 1    
     4    1   74 1    
     5    2    3 2    
     6    2    4 am   BACKBONE|DICT|INTERRES
     7    4    5 1    
     8    4   75 1    
     9    5    6 1    
    10    5   35 1    
    11    5   76 1    
    12    6    7 1    
    13    6   77 1    
    14    6   78 1    
    15    7    8 1    
    16    8    9 1    
    17    8   79 1    
    18    8   80 1    
    19    9   10 ar   
    20    9   14 ar   
    21   10   11 ar   
    22   10   81 1    
    23   11   12 ar   
    24   11   71 1    
    25   12   13 ar   
    26   12   82 1    
    27   13   14 ar   
    28   13   15 1    
    29   14   83 1    
    30   15   16 1    
    31   15   84 1    
    32   15   85 1    
    33   16   17 1    
    34   17   18 1    
    35   17   86 1    
    36   17   87 1    
    37   18   19 1    
    38   18   37 1    
    39   18   88 1    
    40   19   20 am   BACKBONE|DICT|INTERRES
    41   19   89 1    
    42   20   21 2    
    43   20   22 1    
    44   22   23 1    
    45   22   24 1    
    46   22   90 1    
    47   23   91 1    
    48   23   92 1    
    49   23   93 1    
    50   24   25 am   BACKBONE|DICT|INTERRES
    51   24   94 1    
    52   25   26 2    
    53   25   27 1    
    54   27   28 1    
    55   27   29 1    
    56   27   95 1    
    57   28   96 1    
    58   28   97 1    
    59   28   98 1    
    60   29   30 am   BACKBONE|DICT|INTERRES
    61   29   99 1    
    62   30   31 2    
    63   30   32 1    
    64   32   33 1    
    65   32   34 1    
    66   32  100 1    
    67   33  101 1    
    68   33  102 1    
    69   33  103 1    
    70   34   35 am   BACKBONE|DICT|INTERRES
    71   34  104 1    
    72   35   36 2    
    73   37   38 2    
    74   37   39 am   BACKBONE|DICT|INTERRES
    75   39   40 1    
    76   39  105 1    
    77   40   41 1    
    78   40   42 1    
    79   40  106 1    
    80   41  107 1    
    81   41  108 1    
    82   41  109 1    
    83   42   43 2    
    84   42   44 am   BACKBONE|DICT|INTERRES
    85   44   45 1    
    86   44  110 1    
    87   45   46 1    
    88   45   47 1    
    89   45  111 1    
    90   46  112 1    
    91   46  113 1    
    92   46  114 1    
    93   47   48 2    
    94   47   49 am   BACKBONE|DICT|INTERRES
    95   49   50 1    
    96   49  115 1    
    97   50   51 1    
    98   50   52 1    
    99   50  116 1    
   100   51  117 1    
   101   51  118 1    
   102   51  119 1    
   103   52   53 2    
   104   52   54 am   BACKBONE|DICT|INTERRES
   105   54   55 1    
   106   54  120 1    
   107   55   56 1    
   108   55   57 1    
   109   55  121 1    
   110   56  122 1    
   111   56  123 1    
   112   56  124 1    
   113   57   58 2    
   114   57   59 am   BACKBONE|DICT|INTERRES
   115   59   60 1    
   116   59  125 1    
   117   60   61 1    
   118   60   62 1    
   119   60  126 1    
   120   61  127 1    
   121   61  128 1    
   122   61  129 1    
   123   62   63 2    
   124   62   64 am   BACKBONE|DICT|INTERRES
   125   64   65 1    
   126   64  130 1    
   127   65   66 1    
   128   65   69 1    
   129   65  131 1    
   130   66   67 am   BACKBONE|DICT|INTERRES
   131   66   68 2    
   132   67  132 1    
   133   67  133 1    
   134   69   70 1    
   135   69  134 1    
   136   69  135 1    
   137   70   71 1    
   138   71  136 1    
   139   71  137 1    
@<TRIPOS>SUBSTRUCTURE
     1 UNK         1 GROUP             0       ****    0 ROOT    
