@<TRIPOS>MOLECULE
3R136
137   139    1
SMALL
USER_CHARGES


@<TRIPOS>ATOM
      1 CA         29.3936   27.6449   -5.2109 C.3       0 UNK        -0.1979 
      2 C          28.8886   27.0888   -3.8879 C.2       0 UNK         0.4864 
      3 O          27.6774   26.9902   -3.6896 O.2       0 UNK        -0.5359 
      4 N          29.8077   26.7346   -2.9807 N.am      1 UNK        -0.4318 
      5 CA         29.5084   26.1449   -1.6735 C.3       1 UNK         0.0824 
      6 C6         30.7368   26.2311   -0.7311 C.3       12 UNK        -0.0944 
      7 S7         30.2608   26.5077    1.0005 S.3       12 UNK        -0.2672 
      8 C8         30.6080   24.8862    1.7534 C.3       12 UNK         0.0333 
      9 C9         30.6130   25.0030    3.2697 C.ar      12 UNK        -0.0807 
     10 C10        31.7993   24.8570    3.9949 C.ar      12 UNK        -0.0894 
     11 C11        31.8031   25.0200    5.3833 C.ar      12 UNK        -0.0804 
     12 C12        30.6165   25.3707    6.0364 C.ar      12 UNK        -0.0824 
     13 C13        29.4218   25.5264    5.3256 C.ar      12 UNK        -0.0762 
     14 C14        29.4256   25.2921    3.9454 C.ar      12 UNK        -0.0782 
     15 C15        28.1678   25.9486    6.0963 C.3       12 UNK         0.0230 
     16 S16        26.6821   26.3320    5.0987 S.3       12 UNK        -0.2608 
     17 C17        27.1325   27.8843    4.2346 C.3       12 UNK        -0.0989 
     18 CA         26.9909   27.7786    2.6892 C.3       5 UNK         0.0716 
     19 N          25.6794   27.2472    2.2987 N.am      5 UNK        -0.4135 
     20 C          25.4367   26.5156    1.2075 C.2       4 UNK         0.5031 
     21 O          26.2894   26.2577    0.3507 O.2       4 UNK        -0.5229 
     22 CA         23.9962   26.0246    1.0149 C.3       4 UNK         0.0329 
     23 CB         23.3404   26.7336   -0.1813 C.3       4 UNK        -0.2001 
     24 N          24.0306   24.5881    0.7697 N.am      4 UNK        -0.4303 
     25 C          24.0802   23.6536    1.7297 C.2       3 UNK         0.5044 
     26 O          23.8595   23.8750    2.9207 O.2       3 UNK        -0.5152 
     27 CA         24.4903   22.2370    1.2830 C.3       3 UNK         0.0319 
     28 CB         23.2538   21.4026    0.9121 C.3       3 UNK        -0.2001 
     29 N          25.4230   22.2641    0.1504 N.am      3 UNK        -0.4354 
     30 C          26.6663   22.7655    0.2053 C.2       2 UNK         0.4964 
     31 O          27.2186   23.1059    1.2529 O.2       2 UNK        -0.5047 
     32 CA         27.4059   22.9608   -1.1250 C.3       2 UNK         0.0288 
     33 CB         26.5355   22.7369   -2.3840 C.3       2 UNK        -0.2113 
     34 N          27.9644   24.3115   -1.1337 N.am      2 UNK        -0.4145 
     35 C          29.0356   24.6872   -1.8388 C.2       1 UNK         0.5006 
     36 O          29.6665   23.9305   -2.5831 O.2       1 UNK        -0.5103 
     37 C          27.2848   29.1044    1.9490 C.2       5 UNK         0.5055 
     38 O          27.6482   30.1016    2.5742 O.2       5 UNK        -0.5220 
     39 N          27.0731   29.0982    0.6252 N.am      6 UNK        -0.4450 
     40 CA         27.0707   30.2720   -0.2515 C.3       6 UNK         0.0367 
     41 CB         26.4144   29.8889   -1.5875 C.3       6 UNK        -0.1929 
     42 C          28.4559   30.8920   -0.4957 C.2       6 UNK         0.5070 
     43 O          28.5301   32.0749   -0.8295 O.2       6 UNK        -0.5237 
     44 N          29.5198   30.0993   -0.3315 N.am      7 UNK        -0.4739 
     45 CA         30.9106   30.5247   -0.4813 C.3       7 UNK         0.0276 
     46 CB         31.4170   30.1765   -1.8946 C.3       7 UNK        -0.1927 
     47 C          31.7463   29.9108    0.6493 C.2       7 UNK         0.5013 
     48 O          32.7714   29.2801    0.3892 O.2       7 UNK        -0.5193 
     49 N          31.2577   30.0913    1.8863 N.am      8 UNK        -0.4253 
     50 CA         31.8279   29.5658    3.1310 C.3       8 UNK         0.0242 
     51 CB         30.9375   30.0062    4.3057 C.3       8 UNK        -0.2000 
     52 C          33.2865   29.9864    3.3785 C.2       8 UNK         0.4948 
     53 O          34.0848   29.1582    3.8184 O.2       8 UNK        -0.5275 
     54 N          33.6036   31.2579    3.0822 N.am      9 UNK        -0.4246 
     55 CA         34.9254   31.8877    3.1878 C.3       9 UNK         0.0261 
     56 CB         35.8389   31.3959    2.0416 C.3       9 UNK        -0.1959 
     57 C          35.5302   31.7115    4.5945 C.2       9 UNK         0.5033 
     58 O          35.0289   32.3197    5.5422 O.2       9 UNK        -0.5390 
     59 N          36.5527   30.8533    4.7165 N.am      10 UNK        -0.4215 
     60 CA         37.2094   30.4755    5.9713 C.3       10 UNK         0.0240 
     61 CB         38.4052   29.5612    5.6582 C.3       10 UNK        -0.1982 
     62 C          36.2782   29.8080    7.0024 C.2       10 UNK         0.4970 
     63 O          36.5700   29.8848    8.1968 O.2       10 UNK        -0.4916 
     64 N          35.1807   29.1891    6.5446 N.am      11 UNK        -0.4279 
     65 CA         34.1172   28.6523    7.4072 C.3       11 UNK         0.1003 
     66 C          33.1962   29.7453    8.0282 C.2       11 UNK         0.5709 
     67 N          33.2684   31.0071    7.6162 N.am      11 UNK        -0.7358 
     68 O          32.4006   29.4408    8.9136 O.2       11 UNK        -0.4999 
     69 C69        33.2699   27.5695    6.6898 C.3       12 UNK        -0.0954 
     70 S70        34.2524   26.1928    6.0110 S.3       12 UNK        -0.2268 
     71 C71        33.0849   24.8066    6.1802 C.3       12 UNK         0.0203 
     72 H72        29.0561   27.0167   -6.0349 H         1 UNK         0.0888 
     73 H73        29.0047   28.6508   -5.3669 H         1 UNK         0.0888 
     74 H74        30.4819   27.6937   -5.2447 H         1 UNK         0.0888 
     75 H75        30.7864   26.7896   -3.2222 H         1 UNK         0.3017 
     76 H76        28.6887   26.7287   -1.2470 H         1 UNK         0.0873 
     77 H77        31.3910   25.3612   -0.8205 H         1 UNK         0.0745 
     78 H78        31.3649   27.0809   -0.9981 H         1 UNK         0.0745 
     79 H79        29.8520   24.1659    1.4370 H         1 UNK         0.0705 
     80 H80        31.5698   24.5139    1.3976 H         1 UNK         0.0705 
     81 H81        32.7221   24.6203    3.4827 H         1 UNK         0.1334 
     82 H82        30.6218   25.5214    7.1075 H         1 UNK         0.1417 
     83 H83        28.5136   25.3564    3.3734 H         1 UNK         0.1562 
     84 H84        28.4009   26.8189    6.7119 H         1 UNK         0.0748 
     85 H85        27.9074   25.1457    6.7872 H         1 UNK         0.0748 
     86 H86        28.1548   28.1553    4.5000 H         1 UNK         0.0940 
     87 H87        26.4968   28.6815    4.6248 H         1 UNK         0.0940 
     88 H88        27.7517   27.0840    2.3385 H         1 UNK         0.0703 
     89 H89        24.9240   27.4288    2.9436 H         1 UNK         0.3081 
     90 H90        23.4074   26.2334    1.9110 H         1 UNK         0.0719 
     91 H91        23.8951   26.5689   -1.1064 H         1 UNK         0.0809 
     92 H92        22.3192   26.3849   -0.3368 H         1 UNK         0.0809 
     93 H93        23.2937   27.8111   -0.0177 H         1 UNK         0.0809 
     94 H94        24.2617   24.3074   -0.1715 H         1 UNK         0.2990 
     95 H95        24.9920   21.7548    2.1248 H         1 UNK         0.0690 
     96 H96        23.5280   20.3789    0.6564 H         1 UNK         0.0788 
     97 H97        22.7155   21.8290    0.0646 H         1 UNK         0.0788 
     98 H98        22.5554   21.3501    1.7486 H         1 UNK         0.0788 
     99 H99        25.0573   21.9855   -0.7490 H         1 UNK         0.2993 
    100 H100       28.2240   22.2373   -1.1307 H         1 UNK         0.0949 
    101 H101       25.6936   23.4295   -2.4244 H         1 UNK         0.0767 
    102 H102       27.1180   22.8811   -3.2943 H         1 UNK         0.0767 
    103 H103       26.1434   21.7200   -2.4251 H         1 UNK         0.0767 
    104 H104       27.5044   24.9785   -0.5161 H         1 UNK         0.3013 
    105 H105       26.7959   28.2147    0.2092 H         1 UNK         0.3121 
    106 H106       26.4548   31.0391    0.2228 H         1 UNK         0.0774 
    107 H107       26.9746   29.1065   -2.1005 H         1 UNK         0.0815 
    108 H108       26.3636   30.7468   -2.2594 H         1 UNK         0.0815 
    109 H109       25.3947   29.5315   -1.4429 H         1 UNK         0.0815 
    110 H110       29.3735   29.1470   -0.0246 H         1 UNK         0.2987 
    111 H111       30.9873   31.6072   -0.3555 H         1 UNK         0.0949 
    112 H112       31.3660   29.1074   -2.0931 H         1 UNK         0.0806 
    113 H113       30.8296   30.6846   -2.6594 H         1 UNK         0.0806 
    114 H114       32.4547   30.4857   -2.0262 H         1 UNK         0.0806 
    115 H115       30.3885   30.5994    1.9757 H         1 UNK         0.3010 
    116 H116       31.8062   28.4752    3.0682 H         1 UNK         0.0829 
    117 H117       31.3200   29.6462    5.2596 H         1 UNK         0.0813 
    118 H118       30.8714   31.0924    4.3779 H         1 UNK         0.0813 
    119 H119       29.9254   29.6196    4.1988 H         1 UNK         0.0813 
    120 H120       32.8587   31.8598    2.7613 H         1 UNK         0.3038 
    121 H121       34.7752   32.9600    3.0537 H         1 UNK         0.0769 
    122 H122       35.9764   30.3140    2.0537 H         1 UNK         0.0811 
    123 H123       36.8241   31.8621    2.0908 H         1 UNK         0.0811 
    124 H124       35.4141   31.6546    1.0715 H         1 UNK         0.0811 
    125 H125       36.8593   30.3709    3.8841 H         1 UNK         0.3204 
    126 H126       37.5890   31.3919    6.4278 H         1 UNK         0.0748 
    127 H127       38.9371   29.2872    6.5706 H         1 UNK         0.0771 
    128 H128       38.0890   28.6355    5.1752 H         1 UNK         0.0771 
    129 H129       39.1237   30.0552    5.0036 H         1 UNK         0.0771 
    130 H130       34.9907   29.1660    5.5463 H         1 UNK         0.2980 
    131 H131       34.6027   28.1623    8.2533 H         1 UNK         0.0545 
    132 H132       33.9271   31.2948    6.9010 H         1 UNK         0.3459 
    133 H133       32.6651   31.6929    8.0406 H         1 UNK         0.3459 
    134 H134       32.7030   28.0003    5.8662 H         1 UNK         0.0616 
    135 H135       32.5357   27.1586    7.3845 H         1 UNK         0.0616 
    136 H136       33.5742   23.8936    5.8379 H         1 UNK         0.0634 
    137 H137       32.8625   24.6534    7.2373 H         1 UNK         0.0634 
@<TRIPOS>BOND
     1    1    2 1    
     2    1   72 1    
     3    1   73 1    
     4    1   74 1    
     5    2    3 2    
     6    2    4 am   BACKBONE|DICT|INTERRES
     7    4    5 1    
     8    4   75 1    
     9    5    6 1    
    10    5   35 1    
    11    5   76 1    
    12    6    7 1    
    13    6   77 1    
    14    6   78 1    
    15    7    8 1    
    16    8    9 1    
    17    8   79 1    
    18    8   80 1    
    19    9   10 ar   
    20    9   14 ar   
    21   10   11 ar   
    22   10   81 1    
    23   11   12 ar   
    24   11   71 1    
    25   12   13 ar   
    26   12   82 1    
    27   13   14 ar   
    28   13   15 1    
    29   14   83 1    
    30   15   16 1    
    31   15   84 1    
    32   15   85 1    
    33   16   17 1    
    34   17   18 1    
    35   17   86 1    
    36   17   87 1    
    37   18   19 1    
    38   18   37 1    
    39   18   88 1    
    40   19   20 am   BACKBONE|DICT|INTERRES
    41   19   89 1    
    42   20   21 2    
    43   20   22 1    
    44   22   23 1    
    45   22   24 1    
    46   22   90 1    
    47   23   91 1    
    48   23   92 1    
    49   23   93 1    
    50   24   25 am   BACKBONE|DICT|INTERRES
    51   24   94 1    
    52   25   26 2    
    53   25   27 1    
    54   27   28 1    
    55   27   29 1    
    56   27   95 1    
    57   28   96 1    
    58   28   97 1    
    59   28   98 1    
    60   29   30 am   BACKBONE|DICT|INTERRES
    61   29   99 1    
    62   30   31 2    
    63   30   32 1    
    64   32   33 1    
    65   32   34 1    
    66   32  100 1    
    67   33  101 1    
    68   33  102 1    
    69   33  103 1    
    70   34   35 am   BACKBONE|DICT|INTERRES
    71   34  104 1    
    72   35   36 2    
    73   37   38 2    
    74   37   39 am   BACKBONE|DICT|INTERRES
    75   39   40 1    
    76   39  105 1    
    77   40   41 1    
    78   40   42 1    
    79   40  106 1    
    80   41  107 1    
    81   41  108 1    
    82   41  109 1    
    83   42   43 2    
    84   42   44 am   BACKBONE|DICT|INTERRES
    85   44   45 1    
    86   44  110 1    
    87   45   46 1    
    88   45   47 1    
    89   45  111 1    
    90   46  112 1    
    91   46  113 1    
    92   46  114 1    
    93   47   48 2    
    94   47   49 am   BACKBONE|DICT|INTERRES
    95   49   50 1    
    96   49  115 1    
    97   50   51 1    
    98   50   52 1    
    99   50  116 1    
   100   51  117 1    
   101   51  118 1    
   102   51  119 1    
   103   52   53 2    
   104   52   54 am   BACKBONE|DICT|INTERRES
   105   54   55 1    
   106   54  120 1    
   107   55   56 1    
   108   55   57 1    
   109   55  121 1    
   110   56  122 1    
   111   56  123 1    
   112   56  124 1    
   113   57   58 2    
   114   57   59 am   BACKBONE|DICT|INTERRES
   115   59   60 1    
   116   59  125 1    
   117   60   61 1    
   118   60   62 1    
   119   60  126 1    
   120   61  127 1    
   121   61  128 1    
   122   61  129 1    
   123   62   63 2    
   124   62   64 am   BACKBONE|DICT|INTERRES
   125   64   65 1    
   126   64  130 1    
   127   65   66 1    
   128   65   69 1    
   129   65  131 1    
   130   66   67 am   BACKBONE|DICT|INTERRES
   131   66   68 2    
   132   67  132 1    
   133   67  133 1    
   134   69   70 1    
   135   69  134 1    
   136   69  135 1    
   137   70   71 1    
   138   71  136 1    
   139   71  137 1    
@<TRIPOS>SUBSTRUCTURE
     1 UNK         1 GROUP             0       ****    0 ROOT    
