@<TRIPOS>MOLECULE
3R136
137   139    1
SMALL
USER_CHARGES


@<TRIPOS>ATOM
      1 CA         27.0114   18.5303    4.9429 C.3       0 UNK        -0.1979 
      2 C          27.0184   19.4273    3.7142 C.2       0 UNK         0.4864 
      3 O          26.0169   19.4954    2.9985 O.2       0 UNK        -0.5359 
      4 N          28.1357   20.1232    3.4621 N.am      1 UNK        -0.4318 
      5 CA         28.3184   21.0539    2.3432 C.3       1 UNK         0.0824 
      6 C6         29.8219   21.1934    1.9655 C.3       12 UNK        -0.0944 
      7 S7         30.0966   21.3921    0.1711 S.3       12 UNK        -0.2672 
      8 C8         29.8275   23.1707   -0.1038 C.3       12 UNK         0.0333 
      9 C9         31.0742   24.0162    0.1168 C.ar      12 UNK        -0.0807 
     10 C10        31.4936   24.3715    1.4037 C.ar      12 UNK        -0.0894 
     11 C11        32.5925   25.2183    1.5897 C.ar      12 UNK        -0.0804 
     12 C12        33.2712   25.7121    0.4708 C.ar      12 UNK        -0.0824 
     13 C13        32.8536   25.3770   -0.8202 C.ar      12 UNK        -0.0762 
     14 C14        31.7717   24.5086   -0.9878 C.ar      12 UNK        -0.0782 
     15 C15        33.5722   25.9496   -2.0342 C.3       12 UNK         0.0230 
     16 S16        32.4295   26.7307   -3.2231 S.3       12 UNK        -0.2608 
     17 C17        31.9423   28.2731   -2.3773 C.3       12 UNK        -0.0989 
     18 CA         30.4034   28.3485   -2.1427 C.3       5 UNK         0.0716 
     19 N          29.9530   27.5349   -0.9990 N.am      5 UNK        -0.4135 
     20 C          30.1063   27.8516    0.2978 C.2       4 UNK         0.5031 
     21 O          30.8103   28.7880    0.6725 O.2       4 UNK        -0.5229 
     22 CA         29.2726   27.0802    1.3469 C.3       4 UNK         0.0329 
     23 CB         28.7230   28.0274    2.4297 C.3       4 UNK        -0.2001 
     24 N          28.1765   26.2514    0.8243 N.am      4 UNK        -0.4303 
     25 C          27.1365   26.6427    0.0714 C.2       3 UNK         0.5044 
     26 O          27.0172   27.7745   -0.4015 O.2       3 UNK        -0.5152 
     27 CA         26.0596   25.5838   -0.2305 C.3       3 UNK         0.0319 
     28 CB         26.3267   24.9273   -1.5945 C.3       3 UNK        -0.2001 
     29 N          25.9383   24.5388    0.7946 N.am      3 UNK        -0.4354 
     30 C          25.5060   24.7451    2.0485 C.2       2 UNK         0.4964 
     31 O          25.1657   25.8474    2.4786 O.2       2 UNK        -0.5047 
     32 CA         25.4212   23.5253    2.9858 C.3       2 UNK         0.0288 
     33 CB         23.9699   23.0272    3.0855 C.3       2 UNK        -0.2113 
     34 N          26.2843   22.3978    2.6169 N.am      2 UNK        -0.4145 
     35 C          27.6233   22.3993    2.6616 C.2       1 UNK         0.5006 
     36 O          28.2871   23.3920    2.9673 O.2       1 UNK        -0.5103 
     37 C          29.8575   29.8028   -2.0679 C.2       5 UNK         0.5055 
     38 O          30.5316   30.7397   -2.4990 O.2       5 UNK        -0.5220 
     39 N          28.6534   29.9627   -1.4886 N.am      6 UNK        -0.4450 
     40 CA         27.9743   31.2177   -1.1388 C.3       6 UNK         0.0367 
     41 CB         27.6547   32.0504   -2.3984 C.3       6 UNK        -0.1929 
     42 C          28.6789   32.0567   -0.0474 C.2       6 UNK         0.5070 
     43 O          28.2547   33.1866    0.1988 O.2       6 UNK        -0.5237 
     44 N          29.7050   31.5076    0.6162 N.am      7 UNK        -0.4739 
     45 CA         30.4616   32.1428    1.6939 C.3       7 UNK         0.0276 
     46 CB         31.9613   32.0775    1.3475 C.3       7 UNK        -0.1927 
     47 C          30.1228   31.4338    3.0128 C.2       7 UNK         0.5013 
     48 O          30.9786   30.7628    3.5931 O.2       7 UNK        -0.5193 
     49 N          28.8560   31.5719    3.4362 N.am      8 UNK        -0.4253 
     50 CA         28.2597   30.9602    4.6308 C.3       8 UNK         0.0242 
     51 CB         26.8321   31.4988    4.8174 C.3       8 UNK        -0.2000 
     52 C          29.1002   31.1901    5.8971 C.2       8 UNK         0.4948 
     53 O          29.3706   32.3430    6.2413 O.2       8 UNK        -0.5275 
     54 N          29.5487   30.0896    6.5189 N.am      9 UNK        -0.4246 
     55 CA         30.4908   29.9841    7.6460 C.3       9 UNK         0.0261 
     56 CB         29.9528   30.6872    8.9077 C.3       9 UNK        -0.1959 
     57 C          31.9281   30.4432    7.3252 C.2       9 UNK         0.5033 
     58 O          32.8774   29.7952    7.7696 O.2       9 UNK        -0.5390 
     59 N          32.0690   31.5255    6.5501 N.am      10 UNK        -0.4215 
     60 CA         33.3255   32.1315    6.1050 C.3       10 UNK         0.0240 
     61 CB         33.0134   33.4005    5.2959 C.3       10 UNK        -0.1982 
     62 C          34.2471   31.1888    5.3102 C.2       10 UNK         0.4970 
     63 O          35.4645   31.3686    5.3722 O.2       10 UNK        -0.4916 
     64 N          33.6770   30.1993    4.6069 N.am      11 UNK        -0.4279 
     65 CA         34.4300   29.1237    3.9432 C.3       11 UNK         0.1003 
     66 C          35.1941   28.1544    4.8979 C.2       11 UNK         0.5709 
     67 N          34.9312   28.1476    6.2010 N.am      11 UNK        -0.7358 
     68 O          36.0532   27.4021    4.4441 O.2       11 UNK        -0.4999 
     69 C69        33.5741   28.3767    2.8841 C.3       12 UNK        -0.0954 
     70 S70        32.3553   27.1882    3.5561 S.3       12 UNK        -0.2268 
     71 C71        33.0420   25.5913    2.9991 C.3       12 UNK         0.0203 
     72 H72        26.2287   18.8454    5.6324 H         1 UNK         0.0888 
     73 H73        26.8151   17.4986    4.6522 H         1 UNK         0.0888 
     74 H74        27.9630   18.5578    5.4736 H         1 UNK         0.0888 
     75 H75        28.9144   20.0519    4.1021 H         1 UNK         0.3017 
     76 H76        27.8022   20.6248    1.4810 H         1 UNK         0.0873 
     77 H77        30.3465   20.2723    2.2252 H         1 UNK         0.0745 
     78 H78        30.3353   21.9649    2.5363 H         1 UNK         0.0745 
     79 H79        29.4793   23.2924   -1.1305 H         1 UNK         0.0705 
     80 H80        29.0155   23.5380    0.5163 H         1 UNK         0.0705 
     81 H81        30.9448   24.0228    2.2660 H         1 UNK         0.1334 
     82 H82        34.1221   26.3641    0.6004 H         1 UNK         0.1417 
     83 H83        31.4514   24.2464   -1.9872 H         1 UNK         0.1562 
     84 H84        34.1007   25.1394   -2.5382 H         1 UNK         0.0748 
     85 H85        34.3314   26.6757   -1.7391 H         1 UNK         0.0748 
     86 H86        32.2925   29.0804   -3.0222 H         1 UNK         0.0940 
     87 H87        32.4871   28.3878   -1.4387 H         1 UNK         0.0940 
     88 H88        29.9113   27.9267   -3.0204 H         1 UNK         0.0703 
     89 H89        29.3568   26.7534   -1.2241 H         1 UNK         0.3081 
     90 H90        29.9566   26.4026    1.8488 H         1 UNK         0.0719 
     91 H91        29.5414   28.4987    2.9742 H         1 UNK         0.0809 
     92 H92        28.1097   28.8211    2.0015 H         1 UNK         0.0809 
     93 H93        28.1192   27.4900    3.1609 H         1 UNK         0.0809 
     94 H94        28.1605   25.3019    1.1702 H         1 UNK         0.2990 
     95 H95        25.1024   26.1067   -0.2867 H         1 UNK         0.0690 
     96 H96        25.5203   24.2480   -1.8720 H         1 UNK         0.0788 
     97 H97        27.2585   24.3615   -1.5990 H         1 UNK         0.0788 
     98 H98        26.3974   25.6786   -2.3826 H         1 UNK         0.0788 
     99 H99        26.1606   23.5943    0.5168 H         1 UNK         0.2993 
    100 H100       25.7325   23.8663    3.9758 H         1 UNK         0.0949 
    101 H101       23.2998   23.8308    3.3949 H         1 UNK         0.0767 
    102 H102       23.6069   22.6492    2.1288 H         1 UNK         0.0767 
    103 H103       23.8745   22.2276    3.8207 H         1 UNK         0.0767 
    104 H104       25.8269   21.5104    2.4347 H         1 UNK         0.3013 
    105 H105       28.1712   29.1267   -1.1633 H         1 UNK         0.3121 
    106 H106       27.0219   30.9148   -0.7011 H         1 UNK         0.0774 
    107 H107       28.5557   32.4627   -2.8530 H         1 UNK         0.0815 
    108 H108       27.0034   32.8911   -2.1565 H         1 UNK         0.0815 
    109 H109       27.1411   31.4521   -3.1507 H         1 UNK         0.0815 
    110 H110       29.9823   30.5513    0.4095 H         1 UNK         0.2987 
    111 H111       30.1876   33.1941    1.8047 H         1 UNK         0.0949 
    112 H112       32.2954   31.0509    1.1976 H         1 UNK         0.0806 
    113 H113       32.1782   32.6321    0.4347 H         1 UNK         0.0806 
    114 H114       32.5714   32.5071    2.1420 H         1 UNK         0.0806 
    115 H115       28.2424   32.1510    2.8813 H         1 UNK         0.3010 
    116 H116       28.1906   29.8876    4.4485 H         1 UNK         0.0829 
    117 H117       26.3576   31.0526    5.6926 H         1 UNK         0.0813 
    118 H118       26.8252   32.5804    4.9595 H         1 UNK         0.0813 
    119 H119       26.2034   31.2680    3.9571 H         1 UNK         0.0813 
    120 H120       29.2914   29.1998    6.1142 H         1 UNK         0.3038 
    121 H121       30.5542   28.9183    7.8714 H         1 UNK         0.0769 
    122 H122       29.8847   31.7676    8.7786 H         1 UNK         0.0811 
    123 H123       30.6082   30.5060    9.7607 H         1 UNK         0.0811 
    124 H124       28.9629   30.3181    9.1757 H         1 UNK         0.0811 
    125 H125       31.2090   31.9811    6.2534 H         1 UNK         0.3204 
    126 H126       33.8721   32.4269    7.0027 H         1 UNK         0.0748 
    127 H127       33.9282   33.8739    4.9363 H         1 UNK         0.0771 
    128 H128       32.3936   33.1798    4.4271 H         1 UNK         0.0771 
    129 H129       32.4855   34.1364    5.9029 H         1 UNK         0.0771 
    130 H130       32.6654   30.1643    4.5243 H         1 UNK         0.2980 
    131 H131       35.2160   29.6301    3.3796 H         1 UNK         0.0545 
    132 H132       35.4392   27.5181    6.8009 H         1 UNK         0.3459 
    133 H133       34.2264   28.7603    6.5954 H         1 UNK         0.3459 
    134 H134       33.0323   29.0953    2.2694 H         1 UNK         0.0616 
    135 H135       34.2425   27.8607    2.1976 H         1 UNK         0.0616 
    136 H136       32.7232   24.8202    3.7020 H         1 UNK         0.0634 
    137 H137       34.1313   25.6132    3.0560 H         1 UNK         0.0634 
@<TRIPOS>BOND
     1    1    2 1    
     2    1   72 1    
     3    1   73 1    
     4    1   74 1    
     5    2    3 2    
     6    2    4 am   BACKBONE|DICT|INTERRES
     7    4    5 1    
     8    4   75 1    
     9    5    6 1    
    10    5   35 1    
    11    5   76 1    
    12    6    7 1    
    13    6   77 1    
    14    6   78 1    
    15    7    8 1    
    16    8    9 1    
    17    8   79 1    
    18    8   80 1    
    19    9   10 ar   
    20    9   14 ar   
    21   10   11 ar   
    22   10   81 1    
    23   11   12 ar   
    24   11   71 1    
    25   12   13 ar   
    26   12   82 1    
    27   13   14 ar   
    28   13   15 1    
    29   14   83 1    
    30   15   16 1    
    31   15   84 1    
    32   15   85 1    
    33   16   17 1    
    34   17   18 1    
    35   17   86 1    
    36   17   87 1    
    37   18   19 1    
    38   18   37 1    
    39   18   88 1    
    40   19   20 am   BACKBONE|DICT|INTERRES
    41   19   89 1    
    42   20   21 2    
    43   20   22 1    
    44   22   23 1    
    45   22   24 1    
    46   22   90 1    
    47   23   91 1    
    48   23   92 1    
    49   23   93 1    
    50   24   25 am   BACKBONE|DICT|INTERRES
    51   24   94 1    
    52   25   26 2    
    53   25   27 1    
    54   27   28 1    
    55   27   29 1    
    56   27   95 1    
    57   28   96 1    
    58   28   97 1    
    59   28   98 1    
    60   29   30 am   BACKBONE|DICT|INTERRES
    61   29   99 1    
    62   30   31 2    
    63   30   32 1    
    64   32   33 1    
    65   32   34 1    
    66   32  100 1    
    67   33  101 1    
    68   33  102 1    
    69   33  103 1    
    70   34   35 am   BACKBONE|DICT|INTERRES
    71   34  104 1    
    72   35   36 2    
    73   37   38 2    
    74   37   39 am   BACKBONE|DICT|INTERRES
    75   39   40 1    
    76   39  105 1    
    77   40   41 1    
    78   40   42 1    
    79   40  106 1    
    80   41  107 1    
    81   41  108 1    
    82   41  109 1    
    83   42   43 2    
    84   42   44 am   BACKBONE|DICT|INTERRES
    85   44   45 1    
    86   44  110 1    
    87   45   46 1    
    88   45   47 1    
    89   45  111 1    
    90   46  112 1    
    91   46  113 1    
    92   46  114 1    
    93   47   48 2    
    94   47   49 am   BACKBONE|DICT|INTERRES
    95   49   50 1    
    96   49  115 1    
    97   50   51 1    
    98   50   52 1    
    99   50  116 1    
   100   51  117 1    
   101   51  118 1    
   102   51  119 1    
   103   52   53 2    
   104   52   54 am   BACKBONE|DICT|INTERRES
   105   54   55 1    
   106   54  120 1    
   107   55   56 1    
   108   55   57 1    
   109   55  121 1    
   110   56  122 1    
   111   56  123 1    
   112   56  124 1    
   113   57   58 2    
   114   57   59 am   BACKBONE|DICT|INTERRES
   115   59   60 1    
   116   59  125 1    
   117   60   61 1    
   118   60   62 1    
   119   60  126 1    
   120   61  127 1    
   121   61  128 1    
   122   61  129 1    
   123   62   63 2    
   124   62   64 am   BACKBONE|DICT|INTERRES
   125   64   65 1    
   126   64  130 1    
   127   65   66 1    
   128   65   69 1    
   129   65  131 1    
   130   66   67 am   BACKBONE|DICT|INTERRES
   131   66   68 2    
   132   67  132 1    
   133   67  133 1    
   134   69   70 1    
   135   69  134 1    
   136   69  135 1    
   137   70   71 1    
   138   71  136 1    
   139   71  137 1    
@<TRIPOS>SUBSTRUCTURE
     1 UNK         1 GROUP             0       ****    0 ROOT    
