@<TRIPOS>MOLECULE
3R136
137   139    1
SMALL
USER_CHARGES


@<TRIPOS>ATOM
      1 CA         31.0203   16.7814   -1.2510 C.3       0 UNK        -0.1979 
      2 C          30.9321   18.0629   -0.4353 C.2       0 UNK         0.4864 
      3 O          31.9592   18.5735    0.0147 O.2       0 UNK        -0.5359 
      4 N          29.7137   18.5822   -0.2343 N.am      1 UNK        -0.4318 
      5 CA         29.4460   19.8398    0.4673 C.3       1 UNK         0.0824 
      6 C6         27.9534   19.9237    0.8938 C.3       12 UNK        -0.0944 
      7 S7         27.4261   21.5271    1.5909 S.3       12 UNK        -0.2672 
      8 C8         28.0584   21.4193    3.2892 C.3       12 UNK         0.0333 
      9 C9         28.3567   22.8041    3.8442 C.ar      12 UNK        -0.0807 
     10 C10        29.6780   23.2331    4.0071 C.ar      12 UNK        -0.0894 
     11 C11        29.9532   24.4828    4.5711 C.ar      12 UNK        -0.0804 
     12 C12        28.8957   25.3100    4.9599 C.ar      12 UNK        -0.0824 
     13 C13        27.5695   24.9028    4.7813 C.ar      12 UNK        -0.0762 
     14 C14        27.3082   23.6472    4.2237 C.ar      12 UNK        -0.0782 
     15 C15        26.4149   25.7884    5.2303 C.3       12 UNK         0.0230 
     16 S16        26.1582   27.2076    4.1183 S.3       12 UNK        -0.2608 
     17 C17        27.1365   28.5086    4.9534 C.3       12 UNK        -0.0989 
     18 CA         27.9627   29.4022    3.9973 C.3       5 UNK         0.0716 
     19 N          28.7576   28.6348    3.0336 N.am      5 UNK        -0.4135 
     20 C          29.6404   29.1639    2.1743 C.2       4 UNK         0.5031 
     21 O          30.0988   30.3011    2.2958 O.2       4 UNK        -0.5229 
     22 CA         29.9937   28.3464    0.9179 C.3       4 UNK         0.0329 
     23 CB         31.5005   28.3074    0.6289 C.3       4 UNK        -0.2001 
     24 N          29.4567   26.9850    0.9085 N.am      4 UNK        -0.4303 
     25 C          28.1814   26.6576    0.6580 C.2       3 UNK         0.5044 
     26 O          27.2877   27.4980    0.5377 O.2       3 UNK        -0.5152 
     27 CA         27.8410   25.1557    0.5665 C.3       3 UNK         0.0319 
     28 CB         26.8093   24.8633   -0.5417 C.3       3 UNK        -0.2001 
     29 N          29.0097   24.2701    0.4384 N.am      3 UNK        -0.4354 
     30 C          29.9189   24.2353   -0.5507 C.2       2 UNK         0.4964 
     31 O          29.9001   24.9697   -1.5380 O.2       2 UNK        -0.5047 
     32 CA         31.0703   23.2289   -0.3877 C.3       2 UNK         0.0288 
     33 CB         32.1972   23.8473    0.4591 C.3       2 UNK        -0.2113 
     34 N          30.6402   21.9698    0.2242 N.am      2 UNK        -0.4145 
     35 C          29.9026   21.0372   -0.3962 C.2       1 UNK         0.5006 
     36 O          29.5627   21.1004   -1.5809 O.2       1 UNK        -0.5103 
     37 C          27.0851   30.4633    3.2978 C.2       5 UNK         0.5055 
     38 O          26.9691   31.5769    3.8109 O.2       5 UNK        -0.5220 
     39 N          26.5656   30.1372    2.1024 N.am      6 UNK        -0.4450 
     40 CA         25.8414   31.0596    1.2213 C.3       6 UNK         0.0367 
     41 CB         25.2014   30.2577    0.0770 C.3       6 UNK        -0.1929 
     42 C          26.7180   32.1957    0.6556 C.2       6 UNK         0.5070 
     43 O          26.1781   33.2200    0.2392 O.2       6 UNK        -0.5237 
     44 N          28.0450   32.0108    0.6715 N.am      7 UNK        -0.4739 
     45 CA         29.0556   32.9928    0.2750 C.3       7 UNK         0.0276 
     46 CB         30.1079   32.2883   -0.6012 C.3       7 UNK        -0.1927 
     47 C          29.6855   33.6852    1.5018 C.2       7 UNK         0.5013 
     48 O          30.8218   34.1508    1.4146 O.2       7 UNK        -0.5193 
     49 N          28.9371   33.7461    2.6153 N.am      8 UNK        -0.4253 
     50 CA         29.2952   34.3466    3.9062 C.3       8 UNK         0.0242 
     51 CB         29.5383   35.8662    3.7727 C.3       8 UNK        -0.2000 
     52 C          30.4442   33.6022    4.6125 C.2       8 UNK         0.4948 
     53 O          31.3851   34.2334    5.0975 O.2       8 UNK        -0.5275 
     54 N          30.3171   32.2683    4.6721 N.am      9 UNK        -0.4246 
     55 CA         31.2213   31.3106    5.3238 C.3       9 UNK         0.0261 
     56 CB         31.2510   31.5245    6.8524 C.3       9 UNK        -0.1959 
     57 C          32.6192   31.2846    4.6841 C.2       9 UNK         0.5033 
     58 O          33.6291   31.3241    5.3894 O.2       9 UNK        -0.5390 
     59 N          32.6503   31.1779    3.3503 N.am      10 UNK        -0.4215 
     60 CA         33.8729   31.1044    2.5448 C.3       10 UNK         0.0240 
     61 CB         33.6451   31.8385    1.2105 C.3       10 UNK        -0.1982 
     62 C          34.3812   29.6596    2.3496 C.2       10 UNK         0.4970 
     63 O          35.1015   29.4011    1.3843 O.2       10 UNK        -0.4916 
     64 N          34.0099   28.7417    3.2550 N.am      11 UNK        -0.4279 
     65 CA         34.4693   27.3416    3.2801 C.3       11 UNK         0.1003 
     66 C          35.9872   27.1658    3.5853 C.2       11 UNK         0.5709 
     67 N          36.6720   28.1513    4.1548 N.am      11 UNK        -0.7358 
     68 O          36.5526   26.1140    3.2959 O.2       11 UNK        -0.4999 
     69 C69        33.6260   26.4755    4.2547 C.3       12 UNK        -0.0954 
     70 S70        31.8724   26.3281    3.7789 S.3       12 UNK        -0.2268 
     71 C71        31.3912   24.9158    4.8176 C.3       12 UNK         0.0203 
     72 H72        31.4797   15.9904   -0.6588 H         1 UNK         0.0888 
     73 H73        30.0388   16.4355   -1.5750 H         1 UNK         0.0888 
     74 H74        31.6324   16.9430   -2.1379 H         1 UNK         0.0888 
     75 H75        28.9113   18.1349   -0.6543 H         1 UNK         0.3017 
     76 H76        30.0473   19.8333    1.3788 H         1 UNK         0.0873 
     77 H77        27.3123   19.7306    0.0316 H         1 UNK         0.0745 
     78 H78        27.7261   19.1368    1.6150 H         1 UNK         0.0745 
     79 H79        27.3208   20.9169    3.9168 H         1 UNK         0.0705 
     80 H80        28.9562   20.8007    3.3173 H         1 UNK         0.0705 
     81 H81        30.4939   22.5816    3.7258 H         1 UNK         0.1334 
     82 H82        29.1159   26.2657    5.4121 H         1 UNK         0.1417 
     83 H83        26.2867   23.3152    4.0947 H         1 UNK         0.1562 
     84 H84        26.5808   26.1288    6.2534 H         1 UNK         0.0748 
     85 H85        25.4892   25.2117    5.2593 H         1 UNK         0.0748 
     86 H86        27.8143   28.0498    5.6722 H         1 UNK         0.0940 
     87 H87        26.4592   29.1134    5.5604 H         1 UNK         0.0940 
     88 H88        28.6628   29.9553    4.6209 H         1 UNK         0.0703 
     89 H89        28.4351   27.6941    2.8581 H         1 UNK         0.3081 
     90 H90        29.5314   28.8822    0.0861 H         1 UNK         0.0719 
     91 H91        32.0545   27.7780    1.3990 H         1 UNK         0.0809 
     92 H92        31.7061   27.8170   -0.3228 H         1 UNK         0.0809 
     93 H93        31.9116   29.3124    0.5617 H         1 UNK         0.0809 
     94 H94        30.1209   26.2360    1.0371 H         1 UNK         0.2990 
     95 H95        27.3772   24.9009    1.5204 H         1 UNK         0.0690 
     96 H96        26.5552   23.8037   -0.5752 H         1 UNK         0.0788 
     97 H97        27.1793   25.1518   -1.5259 H         1 UNK         0.0788 
     98 H98        25.8824   25.4118   -0.3694 H         1 UNK         0.0788 
     99 H99        29.1172   23.6066    1.1932 H         1 UNK         0.2993 
    100 H100       31.4656   23.0121   -1.3828 H         1 UNK         0.0949 
    101 H101       33.0592   23.1822    0.5171 H         1 UNK         0.0767 
    102 H102       32.5444   24.7855    0.0233 H         1 UNK         0.0767 
    103 H103       31.8720   24.0630    1.4779 H         1 UNK         0.0767 
    104 H104       30.9067   21.8193    1.1857 H         1 UNK         0.3013 
    105 H105       26.7156   29.1995    1.7431 H         1 UNK         0.3121 
    106 H106       25.0434   31.5235    1.8049 H         1 UNK         0.0774 
    107 H107       25.9544   29.7641   -0.5391 H         1 UNK         0.0815 
    108 H108       24.6181   30.9068   -0.5776 H         1 UNK         0.0815 
    109 H109       24.5263   29.4912    0.4578 H         1 UNK         0.0815 
    110 H110       28.4069   31.1607    1.0814 H         1 UNK         0.2987 
    111 H111       28.5957   33.7811   -0.3248 H         1 UNK         0.0949 
    112 H112       30.6249   31.5017   -0.0532 H         1 UNK         0.0806 
    113 H113       29.6506   31.8363   -1.4813 H         1 UNK         0.0806 
    114 H114       30.8629   32.9907   -0.9567 H         1 UNK         0.0806 
    115 H115       28.0303   33.2972    2.5876 H         1 UNK         0.3010 
    116 H116       28.4210   34.2173    4.5467 H         1 UNK         0.0829 
    117 H117       30.4347   36.0868    3.1924 H         1 UNK         0.0813 
    118 H118       28.6957   36.3628    3.2917 H         1 UNK         0.0813 
    119 H119       29.6682   36.3264    4.7530 H         1 UNK         0.0813 
    120 H120       29.5366   31.8628    4.1744 H         1 UNK         0.3038 
    121 H121       30.8094   30.3170    5.1491 H         1 UNK         0.0769 
    122 H122       31.8291   30.7414    7.3445 H         1 UNK         0.0811 
    123 H123       31.7057   32.4785    7.1211 H         1 UNK         0.0811 
    124 H124       30.2472   31.4996    7.2762 H         1 UNK         0.0811 
    125 H125       31.7655   31.0801    2.8563 H         1 UNK         0.3204 
    126 H126       34.6706   31.6374    3.0664 H         1 UNK         0.0748 
    127 H127       34.5635   31.8862    0.6240 H         1 UNK         0.0771 
    128 H128       32.8923   31.3487    0.5965 H         1 UNK         0.0771 
    129 H129       33.3195   32.8656    1.3773 H         1 UNK         0.0771 
    130 H130       33.4298   29.0317    4.0265 H         1 UNK         0.2980 
    131 H131       34.3227   26.9413    2.2751 H         1 UNK         0.0545 
    132 H132       37.6538   28.0243    4.3432 H         1 UNK         0.3459 
    133 H133       36.2172   29.0144    4.4052 H         1 UNK         0.3459 
    134 H134       34.0349   25.4643    4.3061 H         1 UNK         0.0616 
    135 H135       33.6786   26.8777    5.2680 H         1 UNK         0.0616 
    136 H136       31.5113   25.1867    5.8675 H         1 UNK         0.0634 
    137 H137       32.0754   24.0866    4.6313 H         1 UNK         0.0634 
@<TRIPOS>BOND
     1    1    2 1    
     2    1   72 1    
     3    1   73 1    
     4    1   74 1    
     5    2    3 2    
     6    2    4 am   BACKBONE|DICT|INTERRES
     7    4    5 1    
     8    4   75 1    
     9    5    6 1    
    10    5   35 1    
    11    5   76 1    
    12    6    7 1    
    13    6   77 1    
    14    6   78 1    
    15    7    8 1    
    16    8    9 1    
    17    8   79 1    
    18    8   80 1    
    19    9   10 ar   
    20    9   14 ar   
    21   10   11 ar   
    22   10   81 1    
    23   11   12 ar   
    24   11   71 1    
    25   12   13 ar   
    26   12   82 1    
    27   13   14 ar   
    28   13   15 1    
    29   14   83 1    
    30   15   16 1    
    31   15   84 1    
    32   15   85 1    
    33   16   17 1    
    34   17   18 1    
    35   17   86 1    
    36   17   87 1    
    37   18   19 1    
    38   18   37 1    
    39   18   88 1    
    40   19   20 am   BACKBONE|DICT|INTERRES
    41   19   89 1    
    42   20   21 2    
    43   20   22 1    
    44   22   23 1    
    45   22   24 1    
    46   22   90 1    
    47   23   91 1    
    48   23   92 1    
    49   23   93 1    
    50   24   25 am   BACKBONE|DICT|INTERRES
    51   24   94 1    
    52   25   26 2    
    53   25   27 1    
    54   27   28 1    
    55   27   29 1    
    56   27   95 1    
    57   28   96 1    
    58   28   97 1    
    59   28   98 1    
    60   29   30 am   BACKBONE|DICT|INTERRES
    61   29   99 1    
    62   30   31 2    
    63   30   32 1    
    64   32   33 1    
    65   32   34 1    
    66   32  100 1    
    67   33  101 1    
    68   33  102 1    
    69   33  103 1    
    70   34   35 am   BACKBONE|DICT|INTERRES
    71   34  104 1    
    72   35   36 2    
    73   37   38 2    
    74   37   39 am   BACKBONE|DICT|INTERRES
    75   39   40 1    
    76   39  105 1    
    77   40   41 1    
    78   40   42 1    
    79   40  106 1    
    80   41  107 1    
    81   41  108 1    
    82   41  109 1    
    83   42   43 2    
    84   42   44 am   BACKBONE|DICT|INTERRES
    85   44   45 1    
    86   44  110 1    
    87   45   46 1    
    88   45   47 1    
    89   45  111 1    
    90   46  112 1    
    91   46  113 1    
    92   46  114 1    
    93   47   48 2    
    94   47   49 am   BACKBONE|DICT|INTERRES
    95   49   50 1    
    96   49  115 1    
    97   50   51 1    
    98   50   52 1    
    99   50  116 1    
   100   51  117 1    
   101   51  118 1    
   102   51  119 1    
   103   52   53 2    
   104   52   54 am   BACKBONE|DICT|INTERRES
   105   54   55 1    
   106   54  120 1    
   107   55   56 1    
   108   55   57 1    
   109   55  121 1    
   110   56  122 1    
   111   56  123 1    
   112   56  124 1    
   113   57   58 2    
   114   57   59 am   BACKBONE|DICT|INTERRES
   115   59   60 1    
   116   59  125 1    
   117   60   61 1    
   118   60   62 1    
   119   60  126 1    
   120   61  127 1    
   121   61  128 1    
   122   61  129 1    
   123   62   63 2    
   124   62   64 am   BACKBONE|DICT|INTERRES
   125   64   65 1    
   126   64  130 1    
   127   65   66 1    
   128   65   69 1    
   129   65  131 1    
   130   66   67 am   BACKBONE|DICT|INTERRES
   131   66   68 2    
   132   67  132 1    
   133   67  133 1    
   134   69   70 1    
   135   69  134 1    
   136   69  135 1    
   137   70   71 1    
   138   71  136 1    
   139   71  137 1    
@<TRIPOS>SUBSTRUCTURE
     1 UNK         1 GROUP             0       ****    0 ROOT    
