@<TRIPOS>MOLECULE
3R136
137   139    1
SMALL
USER_CHARGES


@<TRIPOS>ATOM
      1 CA         30.7341   24.4009   -4.3638 C.3       0 UNK        -0.1979 
      2 C          29.9131   24.3847   -3.0833 C.2       0 UNK         0.4864 
      3 O          29.8393   23.3476   -2.4219 O.2       0 UNK        -0.5359 
      4 N          29.2915   25.5222   -2.7393 N.am      1 UNK        -0.4318 
      5 CA         28.4697   25.7907   -1.5462 C.3       1 UNK         0.0824 
      6 C6         29.1961   25.5483   -0.1968 C.3       12 UNK        -0.0944 
      7 S7         30.7344   26.5114   -0.0234 S.3       12 UNK        -0.2672 
      8 C8         31.9499   25.1839    0.2663 C.3       12 UNK         0.0333 
      9 C9         32.1145   24.8658    1.7482 C.ar      12 UNK        -0.0807 
     10 C10        33.3299   25.1211    2.3892 C.ar      12 UNK        -0.0894 
     11 C11        33.5124   24.7931    3.7355 C.ar      12 UNK        -0.0804 
     12 C12        32.4519   24.2222    4.4507 C.ar      12 UNK        -0.0824 
     13 C13        31.2239   23.9638    3.8264 C.ar      12 UNK        -0.0762 
     14 C14        31.0733   24.2766    2.4711 C.ar      12 UNK        -0.0782 
     15 C15        30.1021   23.2718    4.6030 C.3       12 UNK         0.0230 
     16 S16        28.4091   23.8159    4.1608 S.3       12 UNK        -0.2608 
     17 C17        28.3173   25.4489    4.9627 C.3       12 UNK        -0.0989 
     18 CA         28.1875   26.6087    3.9428 C.3       5 UNK         0.0716 
     19 N          26.8996   26.5904    3.2371 N.am      5 UNK        -0.4135 
     20 C          26.5859   27.3008    2.1440 C.2       4 UNK         0.5031 
     21 O          27.3969   27.9939    1.5209 O.2       4 UNK        -0.5229 
     22 CA         25.1189   27.2352    1.6878 C.3       4 UNK         0.0329 
     23 CB         24.8152   28.2063    0.5310 C.3       4 UNK        -0.2001 
     24 N          24.7334   25.8770    1.2987 N.am      4 UNK        -0.4303 
     25 C          24.3208   24.9273    2.1517 C.2       3 UNK         0.5044 
     26 O          24.2951   25.0883    3.3731 O.2       3 UNK        -0.5152 
     27 CA         23.8403   23.5846    1.5671 C.3       3 UNK         0.0319 
     28 CB         22.3043   23.5468    1.5145 C.3       3 UNK        -0.2001 
     29 N          24.3689   23.3107    0.2295 N.am      3 UNK        -0.4354 
     30 C          25.6089   22.8681   -0.0125 C.2       2 UNK         0.4964 
     31 O          26.4125   22.5712    0.8723 O.2       2 UNK        -0.5047 
     32 CA         26.0584   22.7738   -1.4836 C.3       2 UNK         0.0288 
     33 CB         24.9249   22.9500   -2.5214 C.3       2 UNK        -0.2113 
     34 N          27.1511   23.7208   -1.7236 N.am      2 UNK        -0.4145 
     35 C          27.1180   25.0493   -1.5459 C.2       1 UNK         0.5006 
     36 O          26.0821   25.6839   -1.3433 O.2       1 UNK        -0.5103 
     37 C          28.4156   27.9839    4.6079 C.2       5 UNK         0.5055 
     38 O          28.3057   28.1185    5.8281 O.2       5 UNK        -0.5220 
     39 N          28.7246   28.9693    3.7656 N.am      6 UNK        -0.4450 
     40 CA         29.1073   30.3404    4.0797 C.3       6 UNK         0.0367 
     41 CB         27.8971   31.1523    4.5752 C.3       6 UNK        -0.1929 
     42 C          29.7428   31.0066    2.8498 C.2       6 UNK         0.5070 
     43 O          30.5627   31.9096    3.0196 O.2       6 UNK        -0.5237 
     44 N          29.3715   30.5566    1.6371 N.am      7 UNK        -0.4739 
     45 CA         29.8492   31.0826    0.3531 C.3       7 UNK         0.0276 
     46 CB         29.1517   30.3251   -0.7887 C.3       7 UNK        -0.1927 
     47 C          31.3773   31.0369    0.1743 C.2       7 UNK         0.5013 
     48 O          31.9468   31.9638   -0.4044 O.2       7 UNK        -0.5193 
     49 N          32.0220   29.9902    0.7053 N.am      8 UNK        -0.4253 
     50 CA         33.4756   29.8250    0.7264 C.3       8 UNK         0.0242 
     51 CB         33.8076   28.3280    0.8246 C.3       8 UNK        -0.2000 
     52 C          34.1156   30.6425    1.8617 C.2       8 UNK         0.4948 
     53 O          34.6720   30.0649    2.7962 O.2       8 UNK        -0.5275 
     54 N          34.0067   31.9755    1.7672 N.am      9 UNK        -0.4246 
     55 CA         34.6025   32.9810    2.6585 C.3       9 UNK         0.0261 
     56 CB         36.1169   33.0933    2.3822 C.3       9 UNK        -0.1959 
     57 C          34.2869   32.7468    4.1508 C.2       9 UNK         0.5033 
     58 O          35.1943   32.7728    4.9846 O.2       9 UNK        -0.5390 
     59 N          33.0035   32.4966    4.4450 N.am      10 UNK        -0.4215 
     60 CA         32.4243   32.1948    5.7580 C.3       10 UNK         0.0240 
     61 CB         32.7461   33.2843    6.8048 C.3       10 UNK        -0.1982 
     62 C          32.7020   30.7719    6.2813 C.2       10 UNK         0.4970 
     63 O          32.2589   30.4727    7.3914 O.2       10 UNK        -0.4916 
     64 N          33.3622   29.8987    5.5018 N.am      11 UNK        -0.4279 
     65 CA         33.4064   28.4565    5.7863 C.3       11 UNK         0.1003 
     66 C          32.0294   27.8177    5.4795 C.2       11 UNK         0.5709 
     67 N          31.3651   27.2611    6.4834 N.am      11 UNK        -0.7358 
     68 O          31.5714   27.8329    4.3402 O.2       11 UNK        -0.4999 
     69 C69        34.5561   27.7333    5.0407 C.3       12 UNK        -0.0954 
     70 S70        34.9070   26.1103    5.8013 S.3       12 UNK        -0.2268 
     71 C71        34.8863   24.9768    4.3755 C.3       12 UNK         0.0203 
     72 H72        30.3480   23.6628   -5.0663 H         1 UNK         0.0888 
     73 H73        30.7140   25.3760   -4.8503 H         1 UNK         0.0888 
     74 H74        31.7724   24.1531   -4.1448 H         1 UNK         0.0888 
     75 H75        29.3891   26.3174   -3.3551 H         1 UNK         0.3017 
     76 H76        28.2294   26.8545   -1.5930 H         1 UNK         0.0873 
     77 H77        28.5519   25.8120    0.6411 H         1 UNK         0.0745 
     78 H78        29.4052   24.4856   -0.0750 H         1 UNK         0.0745 
     79 H79        31.6678   24.2813   -0.2773 H         1 UNK         0.0705 
     80 H80        32.9032   25.4948   -0.1619 H         1 UNK         0.0705 
     81 H81        34.1495   25.5493    1.8290 H         1 UNK         0.1334 
     82 H82        32.5958   23.9555    5.4889 H         1 UNK         0.1417 
     83 H83        30.1416   24.0496    1.9764 H         1 UNK         0.1562 
     84 H84        30.2447   23.3977    5.6775 H         1 UNK         0.0748 
     85 H85        30.1741   22.2005    4.4115 H         1 UNK         0.0748 
     86 H86        29.2104   25.5763    5.5752 H         1 UNK         0.0940 
     87 H87        27.4756   25.4501    5.6579 H         1 UNK         0.0940 
     88 H88        28.9801   26.4819    3.2007 H         1 UNK         0.0703 
     89 H89        26.1648   26.0319    3.6565 H         1 UNK         0.3081 
     90 H90        24.5062   27.5487    2.5360 H         1 UNK         0.0719 
     91 H91        25.4203   27.9946   -0.3505 H         1 UNK         0.0809 
     92 H92        23.7665   28.1602    0.2375 H         1 UNK         0.0809 
     93 H93        25.0244   29.2359    0.8243 H         1 UNK         0.0809 
     94 H94        24.8364   25.6517    0.3148 H         1 UNK         0.2990 
     95 H95        24.1741   22.7955    2.2446 H         1 UNK         0.0690 
     96 H96        21.9426   22.5779    1.1697 H         1 UNK         0.0788 
     97 H97        21.9029   24.3126    0.8493 H         1 UNK         0.0788 
     98 H98        21.8757   23.7172    2.5033 H         1 UNK         0.0788 
     99 H99        23.7791   23.5453   -0.5563 H         1 UNK         0.2993 
    100 H100       26.4761   21.7741   -1.6129 H         1 UNK         0.0949 
    101 H101       24.4610   23.9358   -2.4771 H         1 UNK         0.0767 
    102 H102       25.3049   22.8158   -3.5342 H         1 UNK         0.0767 
    103 H103       24.1405   22.2059   -2.3761 H         1 UNK         0.0767 
    104 H104       28.0710   23.3145   -1.8876 H         1 UNK         0.3013 
    105 H105       28.7328   28.7153    2.7843 H         1 UNK         0.3121 
    106 H106       29.8631   30.3071    4.8666 H         1 UNK         0.0774 
    107 H107       27.0943   31.1669    3.8371 H         1 UNK         0.0815 
    108 H108       28.1781   32.1872    4.7753 H         1 UNK         0.0815 
    109 H109       27.4934   30.7445    5.5018 H         1 UNK         0.0815 
    110 H110       28.6453   29.8550    1.5688 H         1 UNK         0.2987 
    111 H111       29.5510   32.1319    0.3015 H         1 UNK         0.0949 
    112 H112       29.3763   29.2579   -0.7608 H         1 UNK         0.0806 
    113 H113       28.0685   30.4383   -0.7380 H         1 UNK         0.0806 
    114 H114       29.4711   30.7014   -1.7616 H         1 UNK         0.0806 
    115 H115       31.4788   29.2868    1.1858 H         1 UNK         0.3010 
    116 H116       33.8943   30.1934   -0.2127 H         1 UNK         0.0829 
    117 H117       34.8821   28.1630    0.9145 H         1 UNK         0.0813 
    118 H118       33.3284   27.8729    1.6920 H         1 UNK         0.0813 
    119 H119       33.4754   27.7987   -0.0671 H         1 UNK         0.0813 
    120 H120       33.4651   32.3343    0.9867 H         1 UNK         0.3038 
    121 H121       34.1461   33.9369    2.3971 H         1 UNK         0.0769 
    122 H122       36.6422   32.1734    2.6422 H         1 UNK         0.0811 
    123 H123       36.5636   33.9000    2.9648 H         1 UNK         0.0811 
    124 H124       36.3144   33.3067    1.3318 H         1 UNK         0.0811 
    125 H125       32.3321   32.4485    3.6809 H         1 UNK         0.3204 
    126 H126       31.3459   32.2309    5.6002 H         1 UNK         0.0748 
    127 H127       32.1409   33.1527    7.7026 H         1 UNK         0.0771 
    128 H128       33.7901   33.2562    7.1175 H         1 UNK         0.0771 
    129 H129       32.5356   34.2818    6.4190 H         1 UNK         0.0771 
    130 H130       33.7120   30.1832    4.5928 H         1 UNK         0.2980 
    131 H131       33.6085   28.3533    6.8549 H         1 UNK         0.0545 
    132 H132       31.7407   27.2682    7.4183 H         1 UNK         0.3459 
    133 H133       30.4427   26.8980    6.3152 H         1 UNK         0.3459 
    134 H134       35.4705   28.3258    5.0967 H         1 UNK         0.0616 
    135 H135       34.3328   27.6189    3.9787 H         1 UNK         0.0616 
    136 H136       35.6141   25.3298    3.6431 H         1 UNK         0.0634 
    137 H137       35.2438   24.0017    4.7088 H         1 UNK         0.0634 
@<TRIPOS>BOND
     1    1    2 1    
     2    1   72 1    
     3    1   73 1    
     4    1   74 1    
     5    2    3 2    
     6    2    4 am   BACKBONE|DICT|INTERRES
     7    4    5 1    
     8    4   75 1    
     9    5    6 1    
    10    5   35 1    
    11    5   76 1    
    12    6    7 1    
    13    6   77 1    
    14    6   78 1    
    15    7    8 1    
    16    8    9 1    
    17    8   79 1    
    18    8   80 1    
    19    9   10 ar   
    20    9   14 ar   
    21   10   11 ar   
    22   10   81 1    
    23   11   12 ar   
    24   11   71 1    
    25   12   13 ar   
    26   12   82 1    
    27   13   14 ar   
    28   13   15 1    
    29   14   83 1    
    30   15   16 1    
    31   15   84 1    
    32   15   85 1    
    33   16   17 1    
    34   17   18 1    
    35   17   86 1    
    36   17   87 1    
    37   18   19 1    
    38   18   37 1    
    39   18   88 1    
    40   19   20 am   BACKBONE|DICT|INTERRES
    41   19   89 1    
    42   20   21 2    
    43   20   22 1    
    44   22   23 1    
    45   22   24 1    
    46   22   90 1    
    47   23   91 1    
    48   23   92 1    
    49   23   93 1    
    50   24   25 am   BACKBONE|DICT|INTERRES
    51   24   94 1    
    52   25   26 2    
    53   25   27 1    
    54   27   28 1    
    55   27   29 1    
    56   27   95 1    
    57   28   96 1    
    58   28   97 1    
    59   28   98 1    
    60   29   30 am   BACKBONE|DICT|INTERRES
    61   29   99 1    
    62   30   31 2    
    63   30   32 1    
    64   32   33 1    
    65   32   34 1    
    66   32  100 1    
    67   33  101 1    
    68   33  102 1    
    69   33  103 1    
    70   34   35 am   BACKBONE|DICT|INTERRES
    71   34  104 1    
    72   35   36 2    
    73   37   38 2    
    74   37   39 am   BACKBONE|DICT|INTERRES
    75   39   40 1    
    76   39  105 1    
    77   40   41 1    
    78   40   42 1    
    79   40  106 1    
    80   41  107 1    
    81   41  108 1    
    82   41  109 1    
    83   42   43 2    
    84   42   44 am   BACKBONE|DICT|INTERRES
    85   44   45 1    
    86   44  110 1    
    87   45   46 1    
    88   45   47 1    
    89   45  111 1    
    90   46  112 1    
    91   46  113 1    
    92   46  114 1    
    93   47   48 2    
    94   47   49 am   BACKBONE|DICT|INTERRES
    95   49   50 1    
    96   49  115 1    
    97   50   51 1    
    98   50   52 1    
    99   50  116 1    
   100   51  117 1    
   101   51  118 1    
   102   51  119 1    
   103   52   53 2    
   104   52   54 am   BACKBONE|DICT|INTERRES
   105   54   55 1    
   106   54  120 1    
   107   55   56 1    
   108   55   57 1    
   109   55  121 1    
   110   56  122 1    
   111   56  123 1    
   112   56  124 1    
   113   57   58 2    
   114   57   59 am   BACKBONE|DICT|INTERRES
   115   59   60 1    
   116   59  125 1    
   117   60   61 1    
   118   60   62 1    
   119   60  126 1    
   120   61  127 1    
   121   61  128 1    
   122   61  129 1    
   123   62   63 2    
   124   62   64 am   BACKBONE|DICT|INTERRES
   125   64   65 1    
   126   64  130 1    
   127   65   66 1    
   128   65   69 1    
   129   65  131 1    
   130   66   67 am   BACKBONE|DICT|INTERRES
   131   66   68 2    
   132   67  132 1    
   133   67  133 1    
   134   69   70 1    
   135   69  134 1    
   136   69  135 1    
   137   70   71 1    
   138   71  136 1    
   139   71  137 1    
@<TRIPOS>SUBSTRUCTURE
     1 UNK         1 GROUP             0       ****    0 ROOT    
