@<TRIPOS>MOLECULE
3R136
137   139    1
SMALL
USER_CHARGES


@<TRIPOS>ATOM
      1 CA         28.9563   26.0546   -5.0902 C.3       0 UNK        -0.1979 
      2 C          29.7800   24.8471   -4.6486 C.2       0 UNK         0.4864 
      3 O          30.2986   24.1271   -5.5000 O.2       0 UNK        -0.5359 
      4 N          29.9352   24.5815   -3.3428 N.am      1 UNK        -0.4318 
      5 CA         29.3508   25.3109   -2.2091 C.3       1 UNK         0.0824 
      6 C6         30.1685   25.1029   -0.9093 C.3       12 UNK        -0.0944 
      7 S7         30.4250   23.3540   -0.4448 S.3       12 UNK        -0.2672 
      8 C8         29.3863   23.2276    1.0500 C.3       12 UNK         0.0333 
      9 C9         30.0020   23.7435    2.3517 C.ar      12 UNK        -0.0807 
     10 C10        31.0849   24.6321    2.3906 C.ar      12 UNK        -0.0894 
     11 C11        31.5797   25.1055    3.6100 C.ar      12 UNK        -0.0804 
     12 C12        30.9958   24.6779    4.8054 C.ar      12 UNK        -0.0824 
     13 C13        29.8929   23.8193    4.7806 C.ar      12 UNK        -0.0762 
     14 C14        29.4156   23.3450    3.5559 C.ar      12 UNK        -0.0782 
     15 C15        29.1637   23.4564    6.0647 C.3       12 UNK         0.0230 
     16 S16        27.5116   24.2294    6.1192 S.3       12 UNK        -0.2608 
     17 C17        27.9219   25.9980    6.3201 C.3       12 UNK        -0.0989 
     18 CA         28.1150   26.7636    4.9810 C.3       5 UNK         0.0716 
     19 N          26.9757   26.6122    4.0634 N.am      5 UNK        -0.4135 
     20 C          27.0055   26.8068    2.7375 C.2       4 UNK         0.5031 
     21 O          28.0052   27.1926    2.1223 O.2       4 UNK        -0.5229 
     22 CA         25.7036   26.5398    1.9726 C.3       4 UNK         0.0329 
     23 CB         25.4353   27.6275    0.9173 C.3       4 UNK        -0.2001 
     24 N          25.7886   25.2339    1.3219 N.am      4 UNK        -0.4303 
     25 C          25.4664   24.0763    1.9190 C.2       3 UNK         0.5044 
     26 O          25.0206   24.0200    3.0661 O.2       3 UNK        -0.5152 
     27 CA         25.6931   22.7549    1.1484 C.3       3 UNK         0.0319 
     28 CB         24.5243   21.7642    1.3385 C.3       3 UNK        -0.2001 
     29 N          26.0258   22.9107   -0.2752 N.am      3 UNK        -0.4354 
     30 C          25.2504   23.4072   -1.2512 C.2       2 UNK         0.4964 
     31 O          24.0866   23.7760   -1.0859 O.2       2 UNK        -0.5047 
     32 CA         25.9130   23.5350   -2.6406 C.3       2 UNK         0.0288 
     33 CB         25.1343   24.4785   -3.5827 C.3       2 UNK        -0.2113 
     34 N          27.3310   23.9315   -2.5964 N.am      2 UNK        -0.4145 
     35 C          27.8492   25.0176   -1.9964 C.2       1 UNK         0.5006 
     36 O          27.1904   25.7875   -1.2993 O.2       1 UNK        -0.5103 
     37 C          28.5288   28.2371    5.2054 C.2       5 UNK         0.5055 
     38 O          28.6646   28.6805    6.3472 O.2       5 UNK        -0.5220 
     39 N          28.7255   28.9631    4.1033 N.am      6 UNK        -0.4450 
     40 CA         29.2321   30.3294    4.0395 C.3       6 UNK         0.0367 
     41 CB         28.1020   31.3300    4.3449 C.3       6 UNK        -0.1929 
     42 C          29.9055   30.6509    2.6933 C.2       6 UNK         0.5070 
     43 O          30.5043   31.7222    2.5814 O.2       6 UNK        -0.5237 
     44 N          29.7984   29.7588    1.6927 N.am      7 UNK        -0.4739 
     45 CA         30.2493   29.9897    0.3162 C.3       7 UNK         0.0276 
     46 CB         29.8399   28.7922   -0.5539 C.3       7 UNK        -0.1927 
     47 C          31.7560   30.2620    0.1719 C.2       7 UNK         0.5013 
     48 O          32.1390   31.1206   -0.6243 O.2       7 UNK        -0.5193 
     49 N          32.5850   29.5572    0.9534 N.am      8 UNK        -0.4253 
     50 CA         34.0389   29.7298    0.9757 C.3       8 UNK         0.0242 
     51 CB         34.7164   28.3835    1.2925 C.3       8 UNK        -0.2000 
     52 C          34.4265   30.8385    1.9678 C.2       8 UNK         0.4948 
     53 O          35.0585   30.5568    2.9871 O.2       8 UNK        -0.5275 
     54 N          34.0067   32.0757    1.6622 N.am      9 UNK        -0.4246 
     55 CA         34.2759   33.3171    2.4021 C.3       9 UNK         0.0261 
     56 CB         35.7412   33.7519    2.1869 C.3       9 UNK        -0.1959 
     57 C          33.8963   33.2232    3.8938 C.2       9 UNK         0.5033 
     58 O          34.7428   33.4417    4.7624 O.2       9 UNK        -0.5390 
     59 N          32.6348   32.8497    4.1508 N.am      10 UNK        -0.4215 
     60 CA         32.0189   32.5871    5.4584 C.3       10 UNK         0.0240 
     61 CB         32.1883   33.7672    6.4400 C.3       10 UNK        -0.1982 
     62 C          32.4146   31.2376    6.0915 C.2       10 UNK         0.4970 
     63 O          31.8851   30.9211    7.1570 O.2       10 UNK        -0.4916 
     64 N          33.2831   30.4514    5.4348 N.am      11 UNK        -0.4279 
     65 CA         33.7044   29.0961    5.8392 C.3       11 UNK         0.1003 
     66 C          34.4513   29.0243    7.2078 C.2       11 UNK         0.5709 
     67 N          35.0424   30.1117    7.6898 N.am      11 UNK        -0.7358 
     68 O          34.5336   27.9665    7.8279 O.2       11 UNK        -0.4999 
     69 C69        32.5576   28.0496    5.6931 C.3       12 UNK        -0.0954 
     70 S70        32.1044   27.7964    3.9422 S.3       12 UNK        -0.2268 
     71 C71        32.7207   26.1095    3.6261 C.3       12 UNK         0.0203 
     72 H72        28.9501   26.1333   -6.1773 H         1 UNK         0.0888 
     73 H73        27.9212   25.9693   -4.7621 H         1 UNK         0.0888 
     74 H74        29.3777   26.9793   -4.6974 H         1 UNK         0.0888 
     75 H75        30.5005   23.7860   -3.0785 H         1 UNK         0.3017 
     76 H76        29.4089   26.3769   -2.4349 H         1 UNK         0.0873 
     77 H77        31.1552   25.5520   -1.0331 H         1 UNK         0.0745 
     78 H78        29.7085   25.6411   -0.0775 H         1 UNK         0.0745 
     79 H79        29.1211   22.1767    1.1748 H         1 UNK         0.0705 
     80 H80        28.4567   23.7686    0.8780 H         1 UNK         0.0705 
     81 H81        31.5421   24.9776    1.4757 H         1 UNK         0.1334 
     82 H82        31.3636   25.0601    5.7477 H         1 UNK         0.1417 
     83 H83        28.5550   22.6895    3.5442 H         1 UNK         0.1562 
     84 H84        29.7379   23.7519    6.9442 H         1 UNK         0.0748 
     85 H85        29.0509   22.3727    6.1201 H         1 UNK         0.0748 
     86 H86        28.8200   26.0749    6.9363 H         1 UNK         0.0940 
     87 H87        27.1217   26.4587    6.9023 H         1 UNK         0.0940 
     88 H88        28.9686   26.3221    4.4715 H         1 UNK         0.0703 
     89 H89        26.1223   26.2681    4.4801 H         1 UNK         0.3081 
     90 H90        24.8660   26.5504    2.6736 H         1 UNK         0.0719 
     91 H91        26.2482   27.7095    0.1953 H         1 UNK         0.0809 
     92 H92        24.5185   27.4244    0.3639 H         1 UNK         0.0809 
     93 H93        25.3228   28.6048    1.3881 H         1 UNK         0.0809 
     94 H94        26.1861   25.2282    0.3879 H         1 UNK         0.2990 
     95 H95        26.5701   22.2988    1.6086 H         1 UNK         0.0690 
     96 H96        24.7060   20.8285    0.8098 H         1 UNK         0.0788 
     97 H97        23.5802   22.1753    0.9801 H         1 UNK         0.0788 
     98 H98        24.3878   21.5163    2.3919 H         1 UNK         0.0788 
     99 H99        26.9625   22.6356   -0.5346 H         1 UNK         0.2993 
    100 H100       25.8835   22.5354   -3.0775 H         1 UNK         0.0949 
    101 H101       25.0872   25.4938   -3.1868 H         1 UNK         0.0767 
    102 H102       25.5961   24.5242   -4.5691 H         1 UNK         0.0767 
    103 H103       24.1086   24.1356   -3.7243 H         1 UNK         0.0767 
    104 H104       27.9669   23.3419   -3.1162 H         1 UNK         0.3013 
    105 H105       28.5549   28.4815    3.2240 H         1 UNK         0.3121 
    106 H106       30.0033   30.4256    4.8027 H         1 UNK         0.0774 
    107 H107       28.4627   32.3584    4.2994 H         1 UNK         0.0815 
    108 H108       27.2835   31.2383    3.6302 H         1 UNK         0.0815 
    109 H109       27.6939   31.1778    5.3441 H         1 UNK         0.0815 
    110 H110       29.3108   28.8856    1.8419 H         1 UNK         0.2987 
    111 H111       29.7242   30.8739   -0.0518 H         1 UNK         0.0949 
    112 H112       30.1029   28.9585   -1.5995 H         1 UNK         0.0806 
    113 H113       30.3446   27.8834   -0.2294 H         1 UNK         0.0806 
    114 H114       28.7649   28.6124   -0.5128 H         1 UNK         0.0806 
    115 H115       32.1885   28.9194    1.6305 H         1 UNK         0.3010 
    116 H116       34.3848   30.0383   -0.0135 H         1 UNK         0.0829 
    117 H117       34.3806   27.5966    0.6170 H         1 UNK         0.0813 
    118 H118       35.7986   28.4641    1.1846 H         1 UNK         0.0813 
    119 H119       34.5235   28.0595    2.3141 H         1 UNK         0.0813 
    120 H120       33.4410   32.1723    0.8259 H         1 UNK         0.3038 
    121 H121       33.6350   34.0863    1.9682 H         1 UNK         0.0769 
    122 H122       35.9393   34.7111    2.6671 H         1 UNK         0.0811 
    123 H123       35.9696   33.8676    1.1275 H         1 UNK         0.0811 
    124 H124       36.4427   33.0280    2.6038 H         1 UNK         0.0811 
    125 H125       32.0267   32.6353    3.3618 H         1 UNK         0.3204 
    126 H126       30.9511   32.5137    5.2537 H         1 UNK         0.0748 
    127 H127       31.5509   33.6372    7.3155 H         1 UNK         0.0771 
    128 H128       33.2123   33.8560    6.8030 H         1 UNK         0.0771 
    129 H129       31.9103   34.7139    5.9768 H         1 UNK         0.0771 
    130 H130       33.7198   30.7932    4.5866 H         1 UNK         0.2980 
    131 H131       34.4772   28.8165    5.1225 H         1 UNK         0.0545 
    132 H132       35.5340   30.0592    8.5678 H         1 UNK         0.3459 
    133 H133       34.9985   30.9821    7.1838 H         1 UNK         0.3459 
    134 H134       31.6692   28.3661    6.2411 H         1 UNK         0.0616 
    135 H135       32.8391   27.0883    6.1236 H         1 UNK         0.0616 
    136 H136       33.4708   25.8192    4.3625 H         1 UNK         0.0634 
    137 H137       33.2323   26.1025    2.6632 H         1 UNK         0.0634 
@<TRIPOS>BOND
     1    1    2 1    
     2    1   72 1    
     3    1   73 1    
     4    1   74 1    
     5    2    3 2    
     6    2    4 am   BACKBONE|DICT|INTERRES
     7    4    5 1    
     8    4   75 1    
     9    5    6 1    
    10    5   35 1    
    11    5   76 1    
    12    6    7 1    
    13    6   77 1    
    14    6   78 1    
    15    7    8 1    
    16    8    9 1    
    17    8   79 1    
    18    8   80 1    
    19    9   10 ar   
    20    9   14 ar   
    21   10   11 ar   
    22   10   81 1    
    23   11   12 ar   
    24   11   71 1    
    25   12   13 ar   
    26   12   82 1    
    27   13   14 ar   
    28   13   15 1    
    29   14   83 1    
    30   15   16 1    
    31   15   84 1    
    32   15   85 1    
    33   16   17 1    
    34   17   18 1    
    35   17   86 1    
    36   17   87 1    
    37   18   19 1    
    38   18   37 1    
    39   18   88 1    
    40   19   20 am   BACKBONE|DICT|INTERRES
    41   19   89 1    
    42   20   21 2    
    43   20   22 1    
    44   22   23 1    
    45   22   24 1    
    46   22   90 1    
    47   23   91 1    
    48   23   92 1    
    49   23   93 1    
    50   24   25 am   BACKBONE|DICT|INTERRES
    51   24   94 1    
    52   25   26 2    
    53   25   27 1    
    54   27   28 1    
    55   27   29 1    
    56   27   95 1    
    57   28   96 1    
    58   28   97 1    
    59   28   98 1    
    60   29   30 am   BACKBONE|DICT|INTERRES
    61   29   99 1    
    62   30   31 2    
    63   30   32 1    
    64   32   33 1    
    65   32   34 1    
    66   32  100 1    
    67   33  101 1    
    68   33  102 1    
    69   33  103 1    
    70   34   35 am   BACKBONE|DICT|INTERRES
    71   34  104 1    
    72   35   36 2    
    73   37   38 2    
    74   37   39 am   BACKBONE|DICT|INTERRES
    75   39   40 1    
    76   39  105 1    
    77   40   41 1    
    78   40   42 1    
    79   40  106 1    
    80   41  107 1    
    81   41  108 1    
    82   41  109 1    
    83   42   43 2    
    84   42   44 am   BACKBONE|DICT|INTERRES
    85   44   45 1    
    86   44  110 1    
    87   45   46 1    
    88   45   47 1    
    89   45  111 1    
    90   46  112 1    
    91   46  113 1    
    92   46  114 1    
    93   47   48 2    
    94   47   49 am   BACKBONE|DICT|INTERRES
    95   49   50 1    
    96   49  115 1    
    97   50   51 1    
    98   50   52 1    
    99   50  116 1    
   100   51  117 1    
   101   51  118 1    
   102   51  119 1    
   103   52   53 2    
   104   52   54 am   BACKBONE|DICT|INTERRES
   105   54   55 1    
   106   54  120 1    
   107   55   56 1    
   108   55   57 1    
   109   55  121 1    
   110   56  122 1    
   111   56  123 1    
   112   56  124 1    
   113   57   58 2    
   114   57   59 am   BACKBONE|DICT|INTERRES
   115   59   60 1    
   116   59  125 1    
   117   60   61 1    
   118   60   62 1    
   119   60  126 1    
   120   61  127 1    
   121   61  128 1    
   122   61  129 1    
   123   62   63 2    
   124   62   64 am   BACKBONE|DICT|INTERRES
   125   64   65 1    
   126   64  130 1    
   127   65   66 1    
   128   65   69 1    
   129   65  131 1    
   130   66   67 am   BACKBONE|DICT|INTERRES
   131   66   68 2    
   132   67  132 1    
   133   67  133 1    
   134   69   70 1    
   135   69  134 1    
   136   69  135 1    
   137   70   71 1    
   138   71  136 1    
   139   71  137 1    
@<TRIPOS>SUBSTRUCTURE
     1 UNK         1 GROUP             0       ****    0 ROOT    
