@<TRIPOS>MOLECULE
3R136
137   139    1
SMALL
USER_CHARGES


@<TRIPOS>ATOM
      1 CA         28.0872   22.1271   -1.4062 C.3       0 UNK        -0.1979 
      2 C          27.9260   23.1577   -0.3009 C.2       0 UNK         0.4864 
      3 O          27.7190   24.3359   -0.5963 O.2       0 UNK        -0.5359 
      4 N          28.0236   22.7292    0.9655 N.am      1 UNK        -0.4318 
      5 CA         27.9019   23.5704    2.1623 C.3       1 UNK         0.0824 
      6 C6         28.1556   22.7808    3.4752 C.3       12 UNK        -0.0944 
      7 S7         29.6507   21.7328    3.4692 S.3       12 UNK        -0.2672 
      8 C8         30.9300   22.8421    4.1587 C.3       12 UNK         0.0333 
      9 C9         31.7518   23.6350    3.1380 C.ar      12 UNK        -0.0807 
     10 C10        32.7007   24.5439    3.6180 C.ar      12 UNK        -0.0894 
     11 C11        33.5140   25.2666    2.7395 C.ar      12 UNK        -0.0804 
     12 C12        33.3810   25.0722    1.3626 C.ar      12 UNK        -0.0824 
     13 C13        32.4139   24.1965    0.8626 C.ar      12 UNK        -0.0762 
     14 C14        31.6151   23.4726    1.7522 C.ar      12 UNK        -0.0782 
     15 C15        32.1888   24.0677   -0.6403 C.3       12 UNK         0.0230 
     16 S16        31.6543   25.6344   -1.4172 S.3       12 UNK        -0.2608 
     17 C17        30.6110   26.3751   -0.1178 C.3       12 UNK        -0.0989 
     18 CA         29.6317   27.4373   -0.6576 C.3       5 UNK         0.0716 
     19 N          28.5745   26.8302   -1.4613 N.am      5 UNK        -0.4135 
     20 C          27.8869   27.4606   -2.4193 C.2       4 UNK         0.5031 
     21 O          28.0761   28.6352   -2.7393 O.2       4 UNK        -0.5229 
     22 CA         26.8082   26.6489   -3.1467 C.3       4 UNK         0.0329 
     23 CB         27.4382   25.6386   -4.1215 C.3       4 UNK        -0.2001 
     24 N          25.9455   25.9472   -2.1969 N.am      4 UNK        -0.4303 
     25 C          24.6123   25.8654   -2.2893 C.2       3 UNK         0.5044 
     26 O          23.9523   26.3578   -3.2056 O.2       3 UNK        -0.5152 
     27 CA         23.8822   25.1033   -1.1697 C.3       3 UNK         0.0319 
     28 CB         23.8315   23.6002   -1.4872 C.3       3 UNK        -0.2001 
     29 N          24.4883   25.2948    0.1481 N.am      3 UNK        -0.4354 
     30 C          24.5174   26.4433    0.8365 C.2       2 UNK         0.4964 
     31 O          23.9766   27.4802    0.4509 O.2       2 UNK        -0.5047 
     32 CA         25.2881   26.4569    2.1708 C.3       2 UNK         0.0288 
     33 CB         24.3511   26.2092    3.3698 C.3       2 UNK        -0.2113 
     34 N          26.4679   25.5769    2.2006 N.am      2 UNK        -0.4145 
     35 C          26.5115   24.2366    2.2146 C.2       1 UNK         0.5006 
     36 O          25.5087   23.5187    2.2195 O.2       1 UNK        -0.5103 
     37 C          29.0160   28.1904    0.5295 C.2       5 UNK         0.5055 
     38 O          28.1557   27.6364    1.2190 O.2       5 UNK        -0.5220 
     39 N          29.5311   29.3940    0.8093 N.am      6 UNK        -0.4450 
     40 CA         29.2190   30.1819    2.0033 C.3       6 UNK         0.0367 
     41 CB         29.5791   31.6540    1.7376 C.3       6 UNK        -0.1929 
     42 C          29.9516   29.6040    3.2294 C.2       6 UNK         0.5070 
     43 O          30.9479   30.1684    3.6813 O.2       6 UNK        -0.5237 
     44 N          29.4570   28.4550    3.7083 N.am      7 UNK        -0.4739 
     45 CA         30.0610   27.5849    4.7258 C.3       7 UNK         0.0276 
     46 CB         29.1617   26.3544    4.9197 C.3       7 UNK        -0.1927 
     47 C          30.3750   28.2432    6.0820 C.2       7 UNK         0.5013 
     48 O          31.2164   27.7273    6.8198 O.2       7 UNK        -0.5193 
     49 N          29.7223   29.3714    6.3891 N.am      8 UNK        -0.4253 
     50 CA         29.9788   30.2135    7.5586 C.3       8 UNK         0.0242 
     51 CB         28.7501   31.1099    7.8019 C.3       8 UNK        -0.2000 
     52 C          31.2807   31.0253    7.3959 C.2       8 UNK         0.4948 
     53 O          31.2351   32.2538    7.3115 O.2       8 UNK        -0.5275 
     54 N          32.4162   30.3172    7.3160 N.am      9 UNK        -0.4246 
     55 CA         33.8098   30.7802    7.2061 C.3       9 UNK         0.0261 
     56 CB         34.2161   31.6019    8.4447 C.3       9 UNK        -0.1959 
     57 C          34.1793   31.5324    5.9114 C.2       9 UNK         0.5033 
     58 O          35.3337   31.4473    5.4884 O.2       9 UNK        -0.5390 
     59 N          33.2225   32.2411    5.2988 N.am      10 UNK        -0.4215 
     60 CA         33.3747   33.0457    4.0803 C.3       10 UNK         0.0240 
     61 CB         32.0439   33.7504    3.7786 C.3       10 UNK        -0.1982 
     62 C          33.8799   32.2676    2.8499 C.2       10 UNK         0.4970 
     63 O          34.5083   32.8694    1.9781 O.2       10 UNK        -0.4916 
     64 N          33.6319   30.9533    2.8170 N.am      11 UNK        -0.4279 
     65 CA         34.2188   29.9897    1.8763 C.3       11 UNK         0.1003 
     66 C          35.7737   29.8720    1.9158 C.2       11 UNK         0.5709 
     67 N          36.4555   30.3207    2.9645 N.am      11 UNK        -0.7358 
     68 O          36.3708   29.3678    0.9677 O.2       11 UNK        -0.4999 
     69 C69        33.5402   28.6015    2.0115 C.3       12 UNK        -0.0954 
     70 S70        33.7416   27.8581    3.6720 S.3       12 UNK        -0.2268 
     71 C71        34.5266   26.2636    3.2830 C.3       12 UNK         0.0203 
     72 H72        28.2525   21.1256   -1.0097 H         1 UNK         0.0888 
     73 H73        27.1939   22.1040   -2.0296 H         1 UNK         0.0888 
     74 H74        28.9361   22.3885   -2.0374 H         1 UNK         0.0888 
     75 H75        28.1747   21.7475    1.1489 H         1 UNK         0.3017 
     76 H76        28.6622   24.3494    2.0815 H         1 UNK         0.0873 
     77 H77        27.3186   22.1089    3.6774 H         1 UNK         0.0745 
     78 H78        28.1949   23.4601    4.3282 H         1 UNK         0.0745 
     79 H79        30.4748   23.5262    4.8751 H         1 UNK         0.0705 
     80 H80        31.6215   22.2233    4.7321 H         1 UNK         0.0705 
     81 H81        32.8107   24.6907    4.6842 H         1 UNK         0.1334 
     82 H82        33.9992   25.6317    0.6742 H         1 UNK         0.1417 
     83 H83        30.8838   22.7884    1.3492 H         1 UNK         0.1562 
     84 H84        31.4362   23.3069   -0.8531 H         1 UNK         0.0748 
     85 H85        33.1096   23.7292   -1.1170 H         1 UNK         0.0748 
     86 H86        31.2831   26.8134    0.6229 H         1 UNK         0.0940 
     87 H87        30.0617   25.5856    0.3985 H         1 UNK         0.0940 
     88 H88        30.1895   28.1451   -1.2751 H         1 UNK         0.0703 
     89 H89        28.3314   25.8715   -1.2172 H         1 UNK         0.3081 
     90 H90        26.2176   27.3609   -3.7275 H         1 UNK         0.0719 
     91 H91        28.0203   24.8794   -3.5971 H         1 UNK         0.0809 
     92 H92        26.6741   25.1272   -4.7071 H         1 UNK         0.0809 
     93 H93        28.1066   26.1374   -4.8246 H         1 UNK         0.0809 
     94 H94        26.4093   25.4834   -1.4205 H         1 UNK         0.2990 
     95 H95        22.8580   25.4795   -1.1248 H         1 UNK         0.0690 
     96 H96        23.3650   23.4215   -2.4571 H         1 UNK         0.0788 
     97 H97        23.2487   23.0570   -0.7430 H         1 UNK         0.0788 
     98 H98        24.8291   23.1605   -1.5183 H         1 UNK         0.0788 
     99 H99        24.9148   24.4847    0.5848 H         1 UNK         0.2993 
    100 H100       25.6829   27.4688    2.2768 H         1 UNK         0.0949 
    101 H101       24.8928   26.2646    4.3141 H         1 UNK         0.0767 
    102 H102       23.5615   26.9609    3.4040 H         1 UNK         0.0767 
    103 H103       23.8640   25.2352    3.3172 H         1 UNK         0.0767 
    104 H104       27.3347   26.0845    2.0458 H         1 UNK         0.3013 
    105 H105       30.2568   29.7623    0.2114 H         1 UNK         0.3121 
    106 H106       28.1446   30.1300    2.1943 H         1 UNK         0.0774 
    107 H107       30.6471   31.7876    1.5593 H         1 UNK         0.0815 
    108 H108       29.3044   32.2763    2.5896 H         1 UNK         0.0815 
    109 H109       29.0436   32.0433    0.8716 H         1 UNK         0.0815 
    110 H110       28.6676   28.0683    3.2047 H         1 UNK         0.2987 
    111 H111       31.0132   27.2389    4.3221 H         1 UNK         0.0949 
    112 H112       28.1533   26.6336    5.2274 H         1 UNK         0.0806 
    113 H113       29.0891   25.7778    3.9992 H         1 UNK         0.0806 
    114 H114       29.5646   25.6894    5.6848 H         1 UNK         0.0806 
    115 H115       29.0842   29.7382    5.6986 H         1 UNK         0.3010 
    116 H116       30.1021   29.5717    8.4338 H         1 UNK         0.0829 
    117 H117       27.8529   30.5154    7.9752 H         1 UNK         0.0813 
    118 H118       28.8944   31.7392    8.6812 H         1 UNK         0.0813 
    119 H119       28.5570   31.7711    6.9560 H         1 UNK         0.0813 
    120 H120       32.2994   29.3070    7.3016 H         1 UNK         0.3038 
    121 H121       34.4129   29.8707    7.2053 H         1 UNK         0.0769 
    122 H122       35.2752   31.8611    8.4096 H         1 UNK         0.0811 
    123 H123       33.6574   32.5357    8.5151 H         1 UNK         0.0811 
    124 H124       34.0509   31.0413    9.3647 H         1 UNK         0.0811 
    125 H125       32.3219   32.2834    5.7692 H         1 UNK         0.3204 
    126 H126       34.1228   33.8114    4.2944 H         1 UNK         0.0748 
    127 H127       32.0939   34.3137    2.8456 H         1 UNK         0.0771 
    128 H128       31.2290   33.0335    3.6902 H         1 UNK         0.0771 
    129 H129       31.7821   34.4541    4.5691 H         1 UNK         0.0771 
    130 H130       33.0234   30.5595    3.5254 H         1 UNK         0.2980 
    131 H131       33.9811   30.3634    0.8789 H         1 UNK         0.0545 
    132 H132       37.4591   30.2394    2.9703 H         1 UNK         0.3459 
    133 H133       35.9771   30.7212    3.7657 H         1 UNK         0.3459 
    134 H134       32.4720   28.6928    1.8148 H         1 UNK         0.0616 
    135 H135       33.9188   27.9238    1.2459 H         1 UNK         0.0616 
    136 H136       35.3449   26.4166    2.5775 H         1 UNK         0.0634 
    137 H137       34.9783   25.8653    4.1926 H         1 UNK         0.0634 
@<TRIPOS>BOND
     1    1    2 1    
     2    1   72 1    
     3    1   73 1    
     4    1   74 1    
     5    2    3 2    
     6    2    4 am   BACKBONE|DICT|INTERRES
     7    4    5 1    
     8    4   75 1    
     9    5    6 1    
    10    5   35 1    
    11    5   76 1    
    12    6    7 1    
    13    6   77 1    
    14    6   78 1    
    15    7    8 1    
    16    8    9 1    
    17    8   79 1    
    18    8   80 1    
    19    9   10 ar   
    20    9   14 ar   
    21   10   11 ar   
    22   10   81 1    
    23   11   12 ar   
    24   11   71 1    
    25   12   13 ar   
    26   12   82 1    
    27   13   14 ar   
    28   13   15 1    
    29   14   83 1    
    30   15   16 1    
    31   15   84 1    
    32   15   85 1    
    33   16   17 1    
    34   17   18 1    
    35   17   86 1    
    36   17   87 1    
    37   18   19 1    
    38   18   37 1    
    39   18   88 1    
    40   19   20 am   BACKBONE|DICT|INTERRES
    41   19   89 1    
    42   20   21 2    
    43   20   22 1    
    44   22   23 1    
    45   22   24 1    
    46   22   90 1    
    47   23   91 1    
    48   23   92 1    
    49   23   93 1    
    50   24   25 am   BACKBONE|DICT|INTERRES
    51   24   94 1    
    52   25   26 2    
    53   25   27 1    
    54   27   28 1    
    55   27   29 1    
    56   27   95 1    
    57   28   96 1    
    58   28   97 1    
    59   28   98 1    
    60   29   30 am   BACKBONE|DICT|INTERRES
    61   29   99 1    
    62   30   31 2    
    63   30   32 1    
    64   32   33 1    
    65   32   34 1    
    66   32  100 1    
    67   33  101 1    
    68   33  102 1    
    69   33  103 1    
    70   34   35 am   BACKBONE|DICT|INTERRES
    71   34  104 1    
    72   35   36 2    
    73   37   38 2    
    74   37   39 am   BACKBONE|DICT|INTERRES
    75   39   40 1    
    76   39  105 1    
    77   40   41 1    
    78   40   42 1    
    79   40  106 1    
    80   41  107 1    
    81   41  108 1    
    82   41  109 1    
    83   42   43 2    
    84   42   44 am   BACKBONE|DICT|INTERRES
    85   44   45 1    
    86   44  110 1    
    87   45   46 1    
    88   45   47 1    
    89   45  111 1    
    90   46  112 1    
    91   46  113 1    
    92   46  114 1    
    93   47   48 2    
    94   47   49 am   BACKBONE|DICT|INTERRES
    95   49   50 1    
    96   49  115 1    
    97   50   51 1    
    98   50   52 1    
    99   50  116 1    
   100   51  117 1    
   101   51  118 1    
   102   51  119 1    
   103   52   53 2    
   104   52   54 am   BACKBONE|DICT|INTERRES
   105   54   55 1    
   106   54  120 1    
   107   55   56 1    
   108   55   57 1    
   109   55  121 1    
   110   56  122 1    
   111   56  123 1    
   112   56  124 1    
   113   57   58 2    
   114   57   59 am   BACKBONE|DICT|INTERRES
   115   59   60 1    
   116   59  125 1    
   117   60   61 1    
   118   60   62 1    
   119   60  126 1    
   120   61  127 1    
   121   61  128 1    
   122   61  129 1    
   123   62   63 2    
   124   62   64 am   BACKBONE|DICT|INTERRES
   125   64   65 1    
   126   64  130 1    
   127   65   66 1    
   128   65   69 1    
   129   65  131 1    
   130   66   67 am   BACKBONE|DICT|INTERRES
   131   66   68 2    
   132   67  132 1    
   133   67  133 1    
   134   69   70 1    
   135   69  134 1    
   136   69  135 1    
   137   70   71 1    
   138   71  136 1    
   139   71  137 1    
@<TRIPOS>SUBSTRUCTURE
     1 UNK         1 GROUP             0       ****    0 ROOT    
