@<TRIPOS>MOLECULE
3R136
137   139    1
SMALL
USER_CHARGES


@<TRIPOS>ATOM
      1 CA         29.4357   19.9671   -1.4733 C.3       0 UNK        -0.1979 
      2 C          29.3728   20.5920   -0.0816 C.2       0 UNK         0.4864 
      3 O          28.8983   19.9404    0.8470 O.2       0 UNK        -0.5359 
      4 N          29.8403   21.8319    0.1280 N.am      1 UNK        -0.4318 
      5 CA         30.3629   22.7802   -0.8637 C.3       1 UNK         0.0824 
      6 C6         31.1103   23.9654   -0.1953 C.3       12 UNK        -0.0944 
      7 S7         30.1462   24.9002    1.0493 S.3       12 UNK        -0.2672 
      8 C8         30.6020   24.0430    2.5935 C.3       12 UNK         0.0333 
      9 C9         30.2452   24.8714    3.8183 C.ar      12 UNK        -0.0807 
     10 C10        31.2549   25.3715    4.6445 C.ar      12 UNK        -0.0894 
     11 C11        30.9439   26.1580    5.7573 C.ar      12 UNK        -0.0804 
     12 C12        29.6038   26.4391    6.0418 C.ar      12 UNK        -0.0824 
     13 C13        28.5781   25.9289    5.2371 C.ar      12 UNK        -0.0762 
     14 C14        28.9084   25.1310    4.1346 C.ar      12 UNK        -0.0782 
     15 C15        27.1234   26.2404    5.5911 C.3       12 UNK         0.0230 
     16 S16        26.0309   26.5494    4.1574 S.3       12 UNK        -0.2608 
     17 C17        26.9208   27.8733    3.2719 C.3       12 UNK        -0.0989 
     18 CA         27.1946   27.4756    1.7954 C.3       5 UNK         0.0716 
     19 N          25.9773   27.3723    0.9784 N.am      5 UNK        -0.4135 
     20 C          25.1391   28.3733    0.6562 C.2       4 UNK         0.5031 
     21 O          25.2657   29.5286    1.0637 O.2       4 UNK        -0.5229 
     22 CA         23.9698   28.0703   -0.3042 C.3       4 UNK         0.0329 
     23 CB         24.1268   28.8722   -1.6084 C.3       4 UNK        -0.2001 
     24 N          23.8368   26.6549   -0.6471 N.am      4 UNK        -0.4303 
     25 C          23.2673   25.7159    0.1206 C.2       3 UNK         0.5044 
     26 O          22.7013   25.9505    1.1880 O.2       3 UNK        -0.5152 
     27 CA         23.3783   24.2609   -0.3796 C.3       3 UNK         0.0319 
     28 CB         22.0903   23.8420   -1.1066 C.3       3 UNK        -0.2001 
     29 N          24.5324   24.0245   -1.2603 N.am      3 UNK        -0.4354 
     30 C          25.8107   24.1697   -0.8867 C.2       2 UNK         0.4964 
     31 O          26.1592   24.5090    0.2479 O.2       2 UNK        -0.5047 
     32 CA         26.8754   23.9939   -1.9721 C.3       2 UNK         0.0288 
     33 CB         27.0363   25.3072   -2.7652 C.3       2 UNK        -0.2113 
     34 N          28.1136   23.6319   -1.2923 N.am      2 UNK        -0.4145 
     35 C          29.2685   23.2480   -1.8447 C.2       1 UNK         0.5006 
     36 O          29.4720   23.1918   -3.0580 O.2       1 UNK        -0.5103 
     37 C          28.2367   28.3800    1.1067 C.2       5 UNK         0.5055 
     38 O          28.6483   29.3979    1.6631 O.2       5 UNK        -0.5220 
     39 N          28.6377   27.9921   -0.1127 N.am      6 UNK        -0.4450 
     40 CA         29.5533   28.7399   -0.9835 C.3       6 UNK         0.0367 
     41 CB         29.7052   27.9924   -2.3184 C.3       6 UNK        -0.1929 
     42 C          30.9378   29.0287   -0.3729 C.2       6 UNK         0.5070 
     43 O          31.5414   30.0491   -0.7048 O.2       6 UNK        -0.5237 
     44 N          31.4123   28.1419    0.5112 N.am      7 UNK        -0.4739 
     45 CA         32.6943   28.2740    1.2050 C.3       7 UNK         0.0276 
     46 CB         33.1756   26.8795    1.6344 C.3       7 UNK        -0.1927 
     47 C          32.6608   29.2257    2.4153 C.2       7 UNK         0.5013 
     48 O          33.7329   29.5200    2.9457 O.2       7 UNK        -0.5193 
     49 N          31.4721   29.6956    2.8387 N.am      8 UNK        -0.4253 
     50 CA         31.2487   30.4776    4.0675 C.3       8 UNK         0.0242 
     51 CB         29.7649   30.8465    4.2052 C.3       8 UNK        -0.2000 
     52 C          32.1188   31.7350    4.2287 C.2       8 UNK         0.4948 
     53 O          32.4151   32.1114    5.3620 O.2       8 UNK        -0.5275 
     54 N          32.5801   32.3232    3.1173 N.am      9 UNK        -0.4246 
     55 CA         33.5650   33.4095    3.0962 C.3       9 UNK         0.0261 
     56 CB         33.7906   33.8518    1.6413 C.3       9 UNK        -0.1959 
     57 C          34.9122   33.0615    3.7675 C.2       9 UNK         0.5033 
     58 O          35.6176   33.9802    4.1878 O.2       9 UNK        -0.5390 
     59 N          35.2428   31.7652    3.8627 N.am      10 UNK        -0.4215 
     60 CA         36.4637   31.2474    4.4784 C.3       10 UNK         0.0240 
     61 CB         37.1658   30.3350    3.4558 C.3       10 UNK        -0.1982 
     62 C          36.2080   30.4863    5.7943 C.2       10 UNK         0.4970 
     63 O          37.1811   29.9946    6.3695 O.2       10 UNK        -0.4916 
     64 N          34.9527   30.3718    6.2564 N.am      11 UNK        -0.4279 
     65 CA         34.5941   29.5360    7.4201 C.3       11 UNK         0.1003 
     66 C          33.3928   30.0257    8.2761 C.2       11 UNK         0.5709 
     67 N          32.6659   31.0703    7.9063 N.am      11 UNK        -0.7358 
     68 O          33.1302   29.4588    9.3343 O.2       11 UNK        -0.4999 
     69 C69        34.5045   28.0252    7.0615 C.3       12 UNK        -0.0954 
     70 S70        33.2861   27.6511    5.7560 S.3       12 UNK        -0.2268 
     71 C71        32.0536   26.6720    6.6677 C.3       12 UNK         0.0203 
     72 H72        28.6509   20.3706   -2.1122 H         1 UNK         0.0888 
     73 H73        30.4004   20.1354   -1.9498 H         1 UNK         0.0888 
     74 H74        29.2898   18.8889   -1.4103 H         1 UNK         0.0888 
     75 H75        29.7824   22.2002    1.0649 H         1 UNK         0.3017 
     76 H76        31.1073   22.2505   -1.4608 H         1 UNK         0.0873 
     77 H77        32.0243   23.5978    0.2733 H         1 UNK         0.0745 
     78 H78        31.4499   24.6720   -0.9553 H         1 UNK         0.0745 
     79 H79        30.0880   23.0836    2.6518 H         1 UNK         0.0705 
     80 H80        31.6708   23.8235    2.5850 H         1 UNK         0.0705 
     81 H81        32.2909   25.1546    4.4223 H         1 UNK         0.1334 
     82 H82        29.3576   27.0460    6.9027 H         1 UNK         0.1417 
     83 H83        28.1264   24.7249    3.5075 H         1 UNK         0.1562 
     84 H84        27.0725   27.1128    6.2446 H         1 UNK         0.0748 
     85 H85        26.7187   25.4045    6.1629 H         1 UNK         0.0748 
     86 H86        27.8586   28.0728    3.7906 H         1 UNK         0.0940 
     87 H87        26.3472   28.7986    3.3376 H         1 UNK         0.0940 
     88 H88        27.6363   26.4785    1.8017 H         1 UNK         0.0703 
     89 H89        25.7822   26.4401    0.6297 H         1 UNK         0.3081 
     90 H90        23.0525   28.3978    0.1900 H         1 UNK         0.0719 
     91 H91        25.0381   28.6009   -2.1430 H         1 UNK         0.0809 
     92 H92        23.2820   28.7109   -2.2785 H         1 UNK         0.0809 
     93 H93        24.1750   29.9434   -1.4072 H         1 UNK         0.0809 
     94 H94        24.2541   26.3612   -1.5177 H         1 UNK         0.2990 
     95 H95        23.4972   23.6250    0.5004 H         1 UNK         0.0690 
     96 H96        22.1171   22.7891   -1.3879 H         1 UNK         0.0788 
     97 H97        21.9271   24.4290   -2.0114 H         1 UNK         0.0788 
     98 H98        21.2180   23.9815   -0.4662 H         1 UNK         0.0788 
     99 H99        24.3269   23.7564   -2.2128 H         1 UNK         0.2993 
    100 H100       26.5874   23.1790   -2.6394 H         1 UNK         0.0949 
    101 H101       26.1141   25.5649   -3.2873 H         1 UNK         0.0767 
    102 H102       27.2836   26.1424   -2.1111 H         1 UNK         0.0767 
    103 H103       27.8166   25.2333   -3.5224 H         1 UNK         0.0767 
    104 H104       28.0372   23.6543   -0.2816 H         1 UNK         0.3013 
    105 H105       28.2691   27.1291   -0.4826 H         1 UNK         0.3121 
    106 H106       29.0883   29.7072   -1.1853 H         1 UNK         0.0774 
    107 H107       30.0745   26.9760   -2.1739 H         1 UNK         0.0815 
    108 H108       30.4098   28.5042   -2.9758 H         1 UNK         0.0815 
    109 H109       28.7572   27.9367   -2.8529 H         1 UNK         0.0815 
    110 H110       30.8559   27.3256    0.7286 H         1 UNK         0.2987 
    111 H111       33.4290   28.6791    0.5055 H         1 UNK         0.0949 
    112 H112       32.4918   26.4284    2.3511 H         1 UNK         0.0806 
    113 H113       33.2637   26.2063    0.7817 H         1 UNK         0.0806 
    114 H114       34.1559   26.9311    2.1105 H         1 UNK         0.0806 
    115 H115       30.6392   29.4400    2.3184 H         1 UNK         0.3010 
    116 H116       31.5002   29.8214    4.9019 H         1 UNK         0.0829 
    117 H117       29.1439   29.9561    4.2873 H         1 UNK         0.0813 
    118 H118       29.5879   31.4404    5.1032 H         1 UNK         0.0813 
    119 H119       29.4127   31.4285    3.3528 H         1 UNK         0.0813 
    120 H120       32.3002   31.9399    2.2256 H         1 UNK         0.3038 
    121 H121       33.1375   34.2487    3.6489 H         1 UNK         0.0769 
    122 H122       34.1922   33.0414    1.0315 H         1 UNK         0.0811 
    123 H123       34.4989   34.6801    1.5901 H         1 UNK         0.0811 
    124 H124       32.8633   34.1928    1.1804 H         1 UNK         0.0811 
    125 H125       34.6084   31.0600    3.4875 H         1 UNK         0.3204 
    126 H126       37.1440   32.0665    4.7197 H         1 UNK         0.0748 
    127 H127       38.1149   29.9624    3.8433 H         1 UNK         0.0771 
    128 H128       36.5525   29.4685    3.2036 H         1 UNK         0.0771 
    129 H129       37.3842   30.8706    2.5319 H         1 UNK         0.0771 
    130 H130       34.1898   30.8204    5.7683 H         1 UNK         0.2980 
    131 H131       35.4200   29.6274    8.1283 H         1 UNK         0.0545 
    132 H132       31.9125   31.3610    8.5079 H         1 UNK         0.3459 
    133 H133       32.7810   31.5325    7.0080 H         1 UNK         0.3459 
    134 H134       35.4756   27.6782    6.7061 H         1 UNK         0.0616 
    135 H135       34.2948   27.4262    7.9494 H         1 UNK         0.0616 
    136 H136       32.5466   25.8199    7.1374 H         1 UNK         0.0634 
    137 H137       31.6453   27.2842    7.4735 H         1 UNK         0.0634 
@<TRIPOS>BOND
     1    1    2 1    
     2    1   72 1    
     3    1   73 1    
     4    1   74 1    
     5    2    3 2    
     6    2    4 am   BACKBONE|DICT|INTERRES
     7    4    5 1    
     8    4   75 1    
     9    5    6 1    
    10    5   35 1    
    11    5   76 1    
    12    6    7 1    
    13    6   77 1    
    14    6   78 1    
    15    7    8 1    
    16    8    9 1    
    17    8   79 1    
    18    8   80 1    
    19    9   10 ar   
    20    9   14 ar   
    21   10   11 ar   
    22   10   81 1    
    23   11   12 ar   
    24   11   71 1    
    25   12   13 ar   
    26   12   82 1    
    27   13   14 ar   
    28   13   15 1    
    29   14   83 1    
    30   15   16 1    
    31   15   84 1    
    32   15   85 1    
    33   16   17 1    
    34   17   18 1    
    35   17   86 1    
    36   17   87 1    
    37   18   19 1    
    38   18   37 1    
    39   18   88 1    
    40   19   20 am   BACKBONE|DICT|INTERRES
    41   19   89 1    
    42   20   21 2    
    43   20   22 1    
    44   22   23 1    
    45   22   24 1    
    46   22   90 1    
    47   23   91 1    
    48   23   92 1    
    49   23   93 1    
    50   24   25 am   BACKBONE|DICT|INTERRES
    51   24   94 1    
    52   25   26 2    
    53   25   27 1    
    54   27   28 1    
    55   27   29 1    
    56   27   95 1    
    57   28   96 1    
    58   28   97 1    
    59   28   98 1    
    60   29   30 am   BACKBONE|DICT|INTERRES
    61   29   99 1    
    62   30   31 2    
    63   30   32 1    
    64   32   33 1    
    65   32   34 1    
    66   32  100 1    
    67   33  101 1    
    68   33  102 1    
    69   33  103 1    
    70   34   35 am   BACKBONE|DICT|INTERRES
    71   34  104 1    
    72   35   36 2    
    73   37   38 2    
    74   37   39 am   BACKBONE|DICT|INTERRES
    75   39   40 1    
    76   39  105 1    
    77   40   41 1    
    78   40   42 1    
    79   40  106 1    
    80   41  107 1    
    81   41  108 1    
    82   41  109 1    
    83   42   43 2    
    84   42   44 am   BACKBONE|DICT|INTERRES
    85   44   45 1    
    86   44  110 1    
    87   45   46 1    
    88   45   47 1    
    89   45  111 1    
    90   46  112 1    
    91   46  113 1    
    92   46  114 1    
    93   47   48 2    
    94   47   49 am   BACKBONE|DICT|INTERRES
    95   49   50 1    
    96   49  115 1    
    97   50   51 1    
    98   50   52 1    
    99   50  116 1    
   100   51  117 1    
   101   51  118 1    
   102   51  119 1    
   103   52   53 2    
   104   52   54 am   BACKBONE|DICT|INTERRES
   105   54   55 1    
   106   54  120 1    
   107   55   56 1    
   108   55   57 1    
   109   55  121 1    
   110   56  122 1    
   111   56  123 1    
   112   56  124 1    
   113   57   58 2    
   114   57   59 am   BACKBONE|DICT|INTERRES
   115   59   60 1    
   116   59  125 1    
   117   60   61 1    
   118   60   62 1    
   119   60  126 1    
   120   61  127 1    
   121   61  128 1    
   122   61  129 1    
   123   62   63 2    
   124   62   64 am   BACKBONE|DICT|INTERRES
   125   64   65 1    
   126   64  130 1    
   127   65   66 1    
   128   65   69 1    
   129   65  131 1    
   130   66   67 am   BACKBONE|DICT|INTERRES
   131   66   68 2    
   132   67  132 1    
   133   67  133 1    
   134   69   70 1    
   135   69  134 1    
   136   69  135 1    
   137   70   71 1    
   138   71  136 1    
   139   71  137 1    
@<TRIPOS>SUBSTRUCTURE
     1 UNK         1 GROUP             0       ****    0 ROOT    
