@<TRIPOS>MOLECULE
3R136
137   139    1
SMALL
USER_CHARGES


@<TRIPOS>ATOM
      1 CA         29.7632   20.6825    4.2923 C.3       0 UNK        -0.1979 
      2 C          29.0274   21.1041    3.0291 C.2       0 UNK         0.4864 
      3 O          28.2018   20.3450    2.5204 O.2       0 UNK        -0.5359 
      4 N          29.3158   22.3117    2.5243 N.am      1 UNK        -0.4318 
      5 CA         28.7248   22.8717    1.2999 C.3       1 UNK         0.0824 
      6 C6         29.6654   23.9033    0.6267 C.3       12 UNK        -0.0944 
      7 S7         31.1221   23.0757   -0.0944 S.3       12 UNK        -0.2672 
      8 C8         32.4736   23.6289    1.0012 C.3       12 UNK         0.0333 
      9 C9         32.9061   25.0835    0.8134 C.ar      12 UNK        -0.0807 
     10 C10        33.5083   25.7512    1.8841 C.ar      12 UNK        -0.0894 
     11 C11        33.9617   27.0704    1.7525 C.ar      12 UNK        -0.0804 
     12 C12        33.7885   27.7249    0.5283 C.ar      12 UNK        -0.0824 
     13 C13        33.1889   27.0741   -0.5534 C.ar      12 UNK        -0.0762 
     14 C14        32.7619   25.7523   -0.4080 C.ar      12 UNK        -0.0782 
     15 C15        33.0163   27.7879   -1.8876 C.3       12 UNK         0.0230 
     16 S16        31.5506   28.8684   -1.9088 S.3       12 UNK        -0.2608 
     17 C17        30.1959   27.6699   -1.6578 C.3       12 UNK        -0.0989 
     18 CA         28.7902   28.2712   -1.9072 C.3       5 UNK         0.0716 
     19 N          27.7509   27.2624   -1.7349 N.am      5 UNK        -0.4135 
     20 C          26.6053   27.2107   -2.4256 C.2       4 UNK         0.5031 
     21 O          26.3901   27.8441   -3.4597 O.2       4 UNK        -0.5229 
     22 CA         25.4917   26.3364   -1.8211 C.3       4 UNK         0.0329 
     23 CB         25.6143   24.8853   -2.3116 C.3       4 UNK        -0.2001 
     24 N          25.5071   26.3792   -0.3520 N.am      4 UNK        -0.4303 
     25 C          25.1569   27.4628    0.3638 C.2       3 UNK         0.5044 
     26 O          24.6575   28.4675   -0.1463 O.2       3 UNK        -0.5152 
     27 CA         25.4505   27.4676    1.8803 C.3       3 UNK         0.0319 
     28 CB         24.3793   28.2296    2.6905 C.3       3 UNK        -0.2001 
     29 N          25.7193   26.1465    2.4623 N.am      3 UNK        -0.4354 
     30 C          24.8627   25.1211    2.5782 C.2       2 UNK         0.4964 
     31 O          23.6830   25.1679    2.2254 O.2       2 UNK        -0.5047 
     32 CA         25.4406   23.8168    3.1698 C.3       2 UNK         0.0288 
     33 CB         24.5404   22.5951    2.8852 C.3       2 UNK        -0.2113 
     34 N          26.8240   23.5147    2.7621 N.am      2 UNK        -0.4145 
     35 C          27.3030   23.4397    1.5080 C.2       1 UNK         0.5006 
     36 O          26.6634   23.7967    0.5184 O.2       1 UNK        -0.5103 
     37 C          28.4663   29.3944   -0.9072 C.2       5 UNK         0.5055 
     38 O          28.2568   29.1034    0.2725 O.2       5 UNK        -0.5220 
     39 N          28.4692   30.6509   -1.3702 N.am      6 UNK        -0.4450 
     40 CA         28.2256   31.8334   -0.5349 C.3       6 UNK         0.0367 
     41 CB         28.0952   33.0737   -1.4332 C.3       6 UNK        -0.1929 
     42 C          29.3045   32.0598    0.5414 C.2       6 UNK         0.5070 
     43 O          29.0085   32.6446    1.5832 O.2       6 UNK        -0.5237 
     44 N          30.5277   31.5799    0.2803 N.am      7 UNK        -0.4739 
     45 CA         31.6664   31.6537    1.1951 C.3       7 UNK         0.0276 
     46 CB         32.9683   31.6654    0.3767 C.3       7 UNK        -0.1927 
     47 C          31.6893   30.5303    2.2471 C.2       7 UNK         0.5013 
     48 O          32.5539   30.5776    3.1222 O.2       7 UNK        -0.5193 
     49 N          30.7603   29.5582    2.1818 N.am      8 UNK        -0.4253 
     50 CA         30.6902   28.3888    3.0752 C.3       8 UNK         0.0242 
     51 CB         29.4924   27.5048    2.7010 C.3       8 UNK        -0.2000 
     52 C          30.6536   28.7218    4.5769 C.2       8 UNK         0.4948 
     53 O          31.1660   27.9407    5.3785 O.2       8 UNK        -0.5275 
     54 N          30.1128   29.8971    4.9270 N.am      9 UNK        -0.4246 
     55 CA         30.1052   30.4598    6.2798 C.3       9 UNK         0.0261 
     56 CB         29.2994   31.7689    6.2728 C.3       9 UNK        -0.1959 
     57 C          31.5057   30.6939    6.8831 C.2       9 UNK         0.5033 
     58 O          31.6237   30.7125    8.1090 O.2       9 UNK        -0.5390 
     59 N          32.5380   30.8532    6.0393 N.am      10 UNK        -0.4215 
     60 CA         33.9357   30.9531    6.4692 C.3       10 UNK         0.0240 
     61 CB         34.7682   31.6100    5.3557 C.3       10 UNK        -0.1982 
     62 C          34.5405   29.5899    6.8525 C.2       10 UNK         0.4970 
     63 O          35.4923   29.5605    7.6337 O.2       10 UNK        -0.4916 
     64 N          33.9956   28.5008    6.2968 N.am      11 UNK        -0.4279 
     65 CA         34.4177   27.1189    6.5593 C.3       11 UNK         0.1003 
     66 C          33.5610   26.4602    7.6715 C.2       11 UNK         0.5709 
     67 N          32.2532   26.6863    7.7043 N.am      11 UNK        -0.7358 
     68 O          34.0903   25.7440    8.5180 O.2       11 UNK        -0.4999 
     69 C69        34.3912   26.2646    5.2663 C.3       12 UNK        -0.0954 
     70 S70        35.6239   26.8204    4.0380 S.3       12 UNK        -0.2268 
     71 C71        34.6047   27.8332    2.9130 C.3       12 UNK         0.0203 
     72 H72        30.4584   21.4485    4.6356 H         1 UNK         0.0888 
     73 H73        30.3296   19.7699    4.1085 H         1 UNK         0.0888 
     74 H74        29.0516   20.4862    5.0938 H         1 UNK         0.0888 
     75 H75        30.0055   22.8885    2.9837 H         1 UNK         0.3017 
     76 H76        28.5890   22.0502    0.5922 H         1 UNK         0.0873 
     77 H77        29.9743   24.6776    1.3309 H         1 UNK         0.0745 
     78 H78        29.1627   24.4201   -0.1933 H         1 UNK         0.0745 
     79 H79        32.1772   23.4527    2.0362 H         1 UNK         0.0705 
     80 H80        33.3407   22.9932    0.8182 H         1 UNK         0.0705 
     81 H81        33.6313   25.2266    2.8195 H         1 UNK         0.1334 
     82 H82        34.1227   28.7465    0.4153 H         1 UNK         0.1417 
     83 H83        32.3177   25.2482   -1.2546 H         1 UNK         0.1562 
     84 H84        32.9444   27.0674   -2.7040 H         1 UNK         0.0748 
     85 H85        33.9008   28.3920   -2.0949 H         1 UNK         0.0748 
     86 H86        30.2713   27.2656   -0.6467 H         1 UNK         0.0940 
     87 H87        30.3558   26.8281   -2.3335 H         1 UNK         0.0940 
     88 H88        28.7570   28.6679   -2.9243 H         1 UNK         0.0703 
     89 H89        27.7899   26.7472   -0.8685 H         1 UNK         0.3081 
     90 H90        24.5318   26.7291   -2.1635 H         1 UNK         0.0719 
     91 H91        26.5830   24.4515   -2.0607 H         1 UNK         0.0809 
     92 H92        24.8410   24.2518   -1.8766 H         1 UNK         0.0809 
     93 H93        25.5069   24.8322   -3.3957 H         1 UNK         0.0809 
     94 H94        25.8677   25.5569    0.1242 H         1 UNK         0.2990 
     95 H95        26.3795   28.0277    1.9837 H         1 UNK         0.0690 
     96 H96        24.6180   28.2394    3.7539 H         1 UNK         0.0788 
     97 H97        23.3892   27.7892    2.5713 H         1 UNK         0.0788 
     98 H98        24.3107   29.2692    2.3678 H         1 UNK         0.0788 
     99 H99        26.6676   25.9936    2.7745 H         1 UNK         0.2993 
    100 H100       25.4621   23.9651    4.2506 H         1 UNK         0.0949 
    101 H101       23.5385   22.7387    3.2919 H         1 UNK         0.0767 
    102 H102       24.4365   22.4143    1.8145 H         1 UNK         0.0767 
    103 H103       24.9449   21.6902    3.3390 H         1 UNK         0.0767 
    104 H104       27.4433   23.2278    3.5068 H         1 UNK         0.3013 
    105 H105       28.6602   30.8141   -2.3489 H         1 UNK         0.3121 
    106 H106       27.2760   31.6845   -0.0158 H         1 UNK         0.0774 
    107 H107       27.2773   32.9647   -2.1457 H         1 UNK         0.0815 
    108 H108       29.0102   33.2640   -1.9956 H         1 UNK         0.0815 
    109 H109       27.8873   33.9648   -0.8390 H         1 UNK         0.0815 
    110 H110       30.6790   31.0962   -0.5944 H         1 UNK         0.2987 
    111 H111       31.6140   32.5949    1.7472 H         1 UNK         0.0949 
    112 H112       33.0803   30.7624   -0.2215 H         1 UNK         0.0806 
    113 H113       33.0018   32.5197   -0.2995 H         1 UNK         0.0806 
    114 H114       33.8416   31.7363    1.0268 H         1 UNK         0.0806 
    115 H115       30.0625   29.6049    1.4488 H         1 UNK         0.3010 
    116 H116       31.5923   27.8034    2.9051 H         1 UNK         0.0829 
    117 H117       29.5594   27.1610    1.6698 H         1 UNK         0.0813 
    118 H118       29.4473   26.6178    3.3345 H         1 UNK         0.0813 
    119 H119       28.5524   28.0426    2.8204 H         1 UNK         0.0813 
    120 H120       29.7263   30.4742    4.1937 H         1 UNK         0.3038 
    121 H121       29.5928   29.7445    6.9266 H         1 UNK         0.0769 
    122 H122       29.7477   32.5152    5.6155 H         1 UNK         0.0811 
    123 H123       29.2500   32.2028    7.2727 H         1 UNK         0.0811 
    124 H124       28.2734   31.6030    5.9436 H         1 UNK         0.0811 
    125 H125       32.3766   30.8177    5.0350 H         1 UNK         0.3204 
    126 H126       33.9832   31.5969    7.3502 H         1 UNK         0.0748 
    127 H127       34.3566   32.5775    5.0679 H         1 UNK         0.0771 
    128 H128       35.7942   31.7785    5.6856 H         1 UNK         0.0771 
    129 H129       34.8143   30.9854    4.4626 H         1 UNK         0.0771 
    130 H130       33.1636   28.6018    5.7310 H         1 UNK         0.2980 
    131 H131       35.4477   27.1227    6.9215 H         1 UNK         0.0545 
    132 H132       31.6957   26.2656    8.4297 H         1 UNK         0.3459 
    133 H133       31.8057   27.2128    6.9582 H         1 UNK         0.3459 
    134 H134       34.6164   25.2210    5.4939 H         1 UNK         0.0616 
    135 H135       33.3923   26.2721    4.8271 H         1 UNK         0.0616 
    136 H136       35.2456   28.6237    2.5199 H         1 UNK         0.0634 
    137 H137       33.8279   28.3347    3.4872 H         1 UNK         0.0634 
@<TRIPOS>BOND
     1    1    2 1    
     2    1   72 1    
     3    1   73 1    
     4    1   74 1    
     5    2    3 2    
     6    2    4 am   BACKBONE|DICT|INTERRES
     7    4    5 1    
     8    4   75 1    
     9    5    6 1    
    10    5   35 1    
    11    5   76 1    
    12    6    7 1    
    13    6   77 1    
    14    6   78 1    
    15    7    8 1    
    16    8    9 1    
    17    8   79 1    
    18    8   80 1    
    19    9   10 ar   
    20    9   14 ar   
    21   10   11 ar   
    22   10   81 1    
    23   11   12 ar   
    24   11   71 1    
    25   12   13 ar   
    26   12   82 1    
    27   13   14 ar   
    28   13   15 1    
    29   14   83 1    
    30   15   16 1    
    31   15   84 1    
    32   15   85 1    
    33   16   17 1    
    34   17   18 1    
    35   17   86 1    
    36   17   87 1    
    37   18   19 1    
    38   18   37 1    
    39   18   88 1    
    40   19   20 am   BACKBONE|DICT|INTERRES
    41   19   89 1    
    42   20   21 2    
    43   20   22 1    
    44   22   23 1    
    45   22   24 1    
    46   22   90 1    
    47   23   91 1    
    48   23   92 1    
    49   23   93 1    
    50   24   25 am   BACKBONE|DICT|INTERRES
    51   24   94 1    
    52   25   26 2    
    53   25   27 1    
    54   27   28 1    
    55   27   29 1    
    56   27   95 1    
    57   28   96 1    
    58   28   97 1    
    59   28   98 1    
    60   29   30 am   BACKBONE|DICT|INTERRES
    61   29   99 1    
    62   30   31 2    
    63   30   32 1    
    64   32   33 1    
    65   32   34 1    
    66   32  100 1    
    67   33  101 1    
    68   33  102 1    
    69   33  103 1    
    70   34   35 am   BACKBONE|DICT|INTERRES
    71   34  104 1    
    72   35   36 2    
    73   37   38 2    
    74   37   39 am   BACKBONE|DICT|INTERRES
    75   39   40 1    
    76   39  105 1    
    77   40   41 1    
    78   40   42 1    
    79   40  106 1    
    80   41  107 1    
    81   41  108 1    
    82   41  109 1    
    83   42   43 2    
    84   42   44 am   BACKBONE|DICT|INTERRES
    85   44   45 1    
    86   44  110 1    
    87   45   46 1    
    88   45   47 1    
    89   45  111 1    
    90   46  112 1    
    91   46  113 1    
    92   46  114 1    
    93   47   48 2    
    94   47   49 am   BACKBONE|DICT|INTERRES
    95   49   50 1    
    96   49  115 1    
    97   50   51 1    
    98   50   52 1    
    99   50  116 1    
   100   51  117 1    
   101   51  118 1    
   102   51  119 1    
   103   52   53 2    
   104   52   54 am   BACKBONE|DICT|INTERRES
   105   54   55 1    
   106   54  120 1    
   107   55   56 1    
   108   55   57 1    
   109   55  121 1    
   110   56  122 1    
   111   56  123 1    
   112   56  124 1    
   113   57   58 2    
   114   57   59 am   BACKBONE|DICT|INTERRES
   115   59   60 1    
   116   59  125 1    
   117   60   61 1    
   118   60   62 1    
   119   60  126 1    
   120   61  127 1    
   121   61  128 1    
   122   61  129 1    
   123   62   63 2    
   124   62   64 am   BACKBONE|DICT|INTERRES
   125   64   65 1    
   126   64  130 1    
   127   65   66 1    
   128   65   69 1    
   129   65  131 1    
   130   66   67 am   BACKBONE|DICT|INTERRES
   131   66   68 2    
   132   67  132 1    
   133   67  133 1    
   134   69   70 1    
   135   69  134 1    
   136   69  135 1    
   137   70   71 1    
   138   71  136 1    
   139   71  137 1    
@<TRIPOS>SUBSTRUCTURE
     1 UNK         1 GROUP             0       ****    0 ROOT    
