@<TRIPOS>MOLECULE
3R136
137   139    1
SMALL
USER_CHARGES


@<TRIPOS>ATOM
      1 CA         28.4507   18.0987    0.9109 C.3       0 UNK        -0.1979 
      2 C          27.9292   19.2696    0.0921 C.2       0 UNK         0.4864 
      3 O          26.7760   19.2520   -0.3408 O.2       0 UNK        -0.5359 
      4 N          28.7583   20.3013   -0.1095 N.am      1 UNK        -0.4318 
      5 CA         28.4770   21.5191   -0.8838 C.3       1 UNK         0.0824 
      6 C6         29.7935   22.1721   -1.3948 C.3       12 UNK        -0.0944 
      7 S7         31.0249   22.5000   -0.0805 S.3       12 UNK        -0.2672 
      8 C8         31.0446   24.3198    0.0034 C.3       12 UNK         0.0333 
      9 C9         31.1524   24.7833    1.4455 C.ar      12 UNK        -0.0807 
     10 C10        32.4012   24.9915    2.0329 C.ar      12 UNK        -0.0894 
     11 C11        32.4975   25.3791    3.3720 C.ar      12 UNK        -0.0804 
     12 C12        31.3283   25.5777    4.1169 C.ar      12 UNK        -0.0824 
     13 C13        30.0658   25.3773    3.5420 C.ar      12 UNK        -0.0762 
     14 C14        29.9942   24.9775    2.2006 C.ar      12 UNK        -0.0782 
     15 C15        28.8194   25.5526    4.4191 C.3       12 UNK         0.0230 
     16 S16        27.2038   25.4202    3.5598 S.3       12 UNK        -0.2608 
     17 C17        26.7963   27.1654    3.2298 C.3       12 UNK        -0.0989 
     18 CA         27.6160   27.7618    2.0583 C.3       5 UNK         0.0716 
     19 N          27.2307   27.2282    0.7402 N.am      5 UNK        -0.4135 
     20 C          27.9906   27.2945   -0.3657 C.2       4 UNK         0.5031 
     21 O          29.1192   27.7892   -0.3683 O.2       4 UNK        -0.5229 
     22 CA         27.3745   26.8211   -1.6943 C.3       4 UNK         0.0329 
     23 CB         28.4245   26.2329   -2.6541 C.3       4 UNK        -0.2001 
     24 N          26.3114   25.8381   -1.4899 N.am      4 UNK        -0.4303 
     25 C          25.0152   26.0188   -1.7808 C.2       3 UNK         0.5044 
     26 O          24.5559   27.0743   -2.2184 O.2       3 UNK        -0.5152 
     27 CA         24.0578   24.8290   -1.5634 C.3       3 UNK         0.0319 
     28 CB         23.6620   24.2079   -2.9131 C.3       3 UNK        -0.2001 
     29 N          24.6044   23.7776   -0.7024 N.am      3 UNK        -0.4354 
     30 C          24.8011   23.8966    0.6175 C.2       2 UNK         0.4964 
     31 O          24.4746   24.8902    1.2670 O.2       2 UNK        -0.5047 
     32 CA         25.5143   22.7274    1.3221 C.3       2 UNK         0.0288 
     33 CB         24.4876   21.7409    1.9003 C.3       2 UNK        -0.2113 
     34 N          26.4721   21.9909    0.4857 N.am      2 UNK        -0.4145 
     35 C          27.5314   22.5081   -0.1545 C.2       1 UNK         0.5006 
     36 O          27.7551   23.7180   -0.1966 O.2       1 UNK        -0.5103 
     37 C          27.6971   29.3060    2.1332 C.2       5 UNK         0.5055 
     38 O          27.9751   29.8348    3.2084 O.2       5 UNK        -0.5220 
     39 N          27.5952   30.0123    0.9958 N.am      6 UNK        -0.4450 
     40 CA         28.1287   31.3698    0.8119 C.3       6 UNK         0.0367 
     41 CB         27.7984   31.8573   -0.6072 C.3       6 UNK        -0.1929 
     42 C          29.6508   31.4499    1.0723 C.2       6 UNK         0.5070 
     43 O          30.1514   32.5141    1.4371 O.2       6 UNK        -0.5237 
     44 N          30.3410   30.3019    0.9636 N.am      7 UNK        -0.4739 
     45 CA         31.7096   30.0551    1.4217 C.3       7 UNK         0.0276 
     46 CB         32.0856   28.6024    1.0889 C.3       7 UNK        -0.1927 
     47 C          31.9544   30.3286    2.9198 C.2       7 UNK         0.5013 
     48 O          33.1147   30.4872    3.2977 O.2       7 UNK        -0.5193 
     49 N          30.8962   30.4338    3.7447 N.am      8 UNK        -0.4253 
     50 CA         30.9439   30.8025    5.1687 C.3       8 UNK         0.0242 
     51 CB         29.5222   30.8318    5.7487 C.3       8 UNK        -0.2000 
     52 C          31.6713   32.1244    5.4773 C.2       8 UNK         0.4948 
     53 O          32.1659   32.2814    6.5931 O.2       8 UNK        -0.5275 
     54 N          31.7873   33.0192    4.4845 N.am      9 UNK        -0.4246 
     55 CA         32.6429   34.2090    4.5273 C.3       9 UNK         0.0261 
     56 CB         32.4354   35.0218    3.2394 C.3       9 UNK        -0.1959 
     57 C          34.1409   33.8926    4.7302 C.2       9 UNK         0.5033 
     58 O          34.8537   34.7276    5.2892 O.2       9 UNK        -0.5390 
     59 N          34.5837   32.7050    4.2928 N.am      10 UNK        -0.4215 
     60 CA         35.9242   32.1655    4.5196 C.3       10 UNK         0.0240 
     61 CB         36.5120   31.6857    3.1817 C.3       10 UNK        -0.1982 
     62 C          35.8915   31.0121    5.5357 C.2       10 UNK         0.4970 
     63 O          36.7648   30.9559    6.4023 O.2       10 UNK        -0.4916 
     64 N          34.9059   30.1119    5.4097 N.am      11 UNK        -0.4279 
     65 CA         34.7471   28.9140    6.2506 C.3       11 UNK         0.1003 
     66 C          34.3278   29.1901    7.7231 C.2       11 UNK         0.5709 
     67 N          33.7467   30.3350    8.0582 N.am      11 UNK        -0.7358 
     68 O          34.5462   28.3435    8.5864 O.2       11 UNK        -0.4999 
     69 C69        33.8075   27.8669    5.5935 C.3       12 UNK        -0.0954 
     70 S70        34.4543   27.2504    4.0041 S.3       12 UNK        -0.2268 
     71 C71        33.8709   25.5268    4.0140 C.3       12 UNK         0.0203 
     72 H72        29.4803   18.2536    1.2332 H         1 UNK         0.0888 
     73 H73        27.8346   17.9574    1.7985 H         1 UNK         0.0888 
     74 H74        28.4143   17.1833    0.3209 H         1 UNK         0.0888 
     75 H75        29.6808   20.2794    0.3036 H         1 UNK         0.3017 
     76 H76        27.9229   21.2112   -1.7733 H         1 UNK         0.0873 
     77 H77        30.2665   21.4946   -2.1074 H         1 UNK         0.0745 
     78 H78        29.5906   23.0782   -1.9667 H         1 UNK         0.0745 
     79 H79        30.1427   24.7399   -0.4386 H         1 UNK         0.0705 
     80 H80        31.8792   24.7013   -0.5866 H         1 UNK         0.0705 
     81 H81        33.2991   24.8282    1.4527 H         1 UNK         0.1334 
     82 H82        31.4040   25.8684    5.1558 H         1 UNK         0.1417 
     83 H83        29.0398   24.7963    1.7291 H         1 UNK         0.1562 
     84 H84        28.8759   26.5084    4.9421 H         1 UNK         0.0748 
     85 H85        28.8445   24.7827    5.1913 H         1 UNK         0.0748 
     86 H86        26.9542   27.7127    4.1613 H         1 UNK         0.0940 
     87 H87        25.7277   27.2415    3.0217 H         1 UNK         0.0940 
     88 H88        28.6523   27.4595    2.2153 H         1 UNK         0.0703 
     89 H89        26.3166   26.8017    0.6767 H         1 UNK         0.3081 
     90 H90        26.9716   27.7186   -2.1674 H         1 UNK         0.0719 
     91 H91        28.8688   25.3233   -2.2548 H         1 UNK         0.0809 
     92 H92        27.9806   25.9886   -3.6191 H         1 UNK         0.0809 
     93 H93        29.2336   26.9397   -2.8431 H         1 UNK         0.0809 
     94 H94        26.6135   24.9569   -1.0805 H         1 UNK         0.2990 
     95 H95        23.1551   25.2211   -1.0898 H         1 UNK         0.0690 
     96 H96        24.5246   23.7901   -3.4339 H         1 UNK         0.0788 
     97 H97        23.2147   24.9545   -3.5710 H         1 UNK         0.0788 
     98 H98        22.9277   23.4123   -2.7846 H         1 UNK         0.0788 
     99 H99        24.8986   22.9240   -1.1541 H         1 UNK         0.2993 
    100 H100       26.0804   23.1522    2.1517 H         1 UNK         0.0949 
    101 H101       23.9160   21.2466    1.1136 H         1 UNK         0.0767 
    102 H102       24.9725   20.9692    2.4987 H         1 UNK         0.0767 
    103 H103       23.7761   22.2530    2.5500 H         1 UNK         0.0767 
    104 H104       26.3432   20.9855    0.4119 H         1 UNK         0.3013 
    105 H105       27.3682   29.5072    0.1526 H         1 UNK         0.3121 
    106 H106       27.6356   32.0266    1.5315 H         1 UNK         0.0774 
    107 H107       28.1621   32.8740   -0.7632 H         1 UNK         0.0815 
    108 H108       28.2585   31.2264   -1.3689 H         1 UNK         0.0815 
    109 H109       26.7227   31.8695   -0.7834 H         1 UNK         0.0815 
    110 H110       29.8541   29.4900    0.5967 H         1 UNK         0.2987 
    111 H111       32.3683   30.7224    0.8626 H         1 UNK         0.0949 
    112 H112       31.4443   27.8916    1.6124 H         1 UNK         0.0806 
    113 H113       32.0016   28.4018    0.0207 H         1 UNK         0.0806 
    114 H114       33.1146   28.3851    1.3792 H         1 UNK         0.0806 
    115 H115       29.9682   30.2833    3.3629 H         1 UNK         0.3010 
    116 H116       31.4937   30.0203    5.6898 H         1 UNK         0.0829 
    117 H117       29.5326   31.1108    6.8034 H         1 UNK         0.0813 
    118 H118       28.8888   31.5497    5.2263 H         1 UNK         0.0813 
    119 H119       29.0477   29.8526    5.6823 H         1 UNK         0.0813 
    120 H120       31.3326   32.8172    3.6030 H         1 UNK         0.3038 
    121 H121       32.3201   34.8167    5.3751 H         1 UNK         0.0769 
    122 H122       33.0420   35.9285    3.2471 H         1 UNK         0.0811 
    123 H123       31.3956   35.3296    3.1271 H         1 UNK         0.0811 
    124 H124       32.7126   34.4500    2.3526 H         1 UNK         0.0811 
    125 H125       33.9203   32.0679    3.8581 H         1 UNK         0.3204 
    126 H126       36.5829   32.9396    4.9189 H         1 UNK         0.0748 
    127 H127       37.5132   31.2753    3.3197 H         1 UNK         0.0771 
    128 H128       35.8995   30.9073    2.7241 H         1 UNK         0.0771 
    129 H129       36.5937   32.5074    2.4700 H         1 UNK         0.0771 
    130 H130       34.2475   30.1999    4.6390 H         1 UNK         0.2980 
    131 H131       35.7346   28.4531    6.3189 H         1 UNK         0.0545 
    132 H132       33.4919   31.0306    7.3664 H         1 UNK         0.3459 
    133 H133       33.4962   30.4860    9.0218 H         1 UNK         0.3459 
    134 H134       33.6681   27.0182    6.2650 H         1 UNK         0.0616 
    135 H135       32.8154   28.2789    5.4185 H         1 UNK         0.0616 
    136 H136       33.8599   25.1276    5.0288 H         1 UNK         0.0634 
    137 H137       34.5978   24.9218    3.4699 H         1 UNK         0.0634 
@<TRIPOS>BOND
     1    1    2 1    
     2    1   72 1    
     3    1   73 1    
     4    1   74 1    
     5    2    3 2    
     6    2    4 am   BACKBONE|DICT|INTERRES
     7    4    5 1    
     8    4   75 1    
     9    5    6 1    
    10    5   35 1    
    11    5   76 1    
    12    6    7 1    
    13    6   77 1    
    14    6   78 1    
    15    7    8 1    
    16    8    9 1    
    17    8   79 1    
    18    8   80 1    
    19    9   10 ar   
    20    9   14 ar   
    21   10   11 ar   
    22   10   81 1    
    23   11   12 ar   
    24   11   71 1    
    25   12   13 ar   
    26   12   82 1    
    27   13   14 ar   
    28   13   15 1    
    29   14   83 1    
    30   15   16 1    
    31   15   84 1    
    32   15   85 1    
    33   16   17 1    
    34   17   18 1    
    35   17   86 1    
    36   17   87 1    
    37   18   19 1    
    38   18   37 1    
    39   18   88 1    
    40   19   20 am   BACKBONE|DICT|INTERRES
    41   19   89 1    
    42   20   21 2    
    43   20   22 1    
    44   22   23 1    
    45   22   24 1    
    46   22   90 1    
    47   23   91 1    
    48   23   92 1    
    49   23   93 1    
    50   24   25 am   BACKBONE|DICT|INTERRES
    51   24   94 1    
    52   25   26 2    
    53   25   27 1    
    54   27   28 1    
    55   27   29 1    
    56   27   95 1    
    57   28   96 1    
    58   28   97 1    
    59   28   98 1    
    60   29   30 am   BACKBONE|DICT|INTERRES
    61   29   99 1    
    62   30   31 2    
    63   30   32 1    
    64   32   33 1    
    65   32   34 1    
    66   32  100 1    
    67   33  101 1    
    68   33  102 1    
    69   33  103 1    
    70   34   35 am   BACKBONE|DICT|INTERRES
    71   34  104 1    
    72   35   36 2    
    73   37   38 2    
    74   37   39 am   BACKBONE|DICT|INTERRES
    75   39   40 1    
    76   39  105 1    
    77   40   41 1    
    78   40   42 1    
    79   40  106 1    
    80   41  107 1    
    81   41  108 1    
    82   41  109 1    
    83   42   43 2    
    84   42   44 am   BACKBONE|DICT|INTERRES
    85   44   45 1    
    86   44  110 1    
    87   45   46 1    
    88   45   47 1    
    89   45  111 1    
    90   46  112 1    
    91   46  113 1    
    92   46  114 1    
    93   47   48 2    
    94   47   49 am   BACKBONE|DICT|INTERRES
    95   49   50 1    
    96   49  115 1    
    97   50   51 1    
    98   50   52 1    
    99   50  116 1    
   100   51  117 1    
   101   51  118 1    
   102   51  119 1    
   103   52   53 2    
   104   52   54 am   BACKBONE|DICT|INTERRES
   105   54   55 1    
   106   54  120 1    
   107   55   56 1    
   108   55   57 1    
   109   55  121 1    
   110   56  122 1    
   111   56  123 1    
   112   56  124 1    
   113   57   58 2    
   114   57   59 am   BACKBONE|DICT|INTERRES
   115   59   60 1    
   116   59  125 1    
   117   60   61 1    
   118   60   62 1    
   119   60  126 1    
   120   61  127 1    
   121   61  128 1    
   122   61  129 1    
   123   62   63 2    
   124   62   64 am   BACKBONE|DICT|INTERRES
   125   64   65 1    
   126   64  130 1    
   127   65   66 1    
   128   65   69 1    
   129   65  131 1    
   130   66   67 am   BACKBONE|DICT|INTERRES
   131   66   68 2    
   132   67  132 1    
   133   67  133 1    
   134   69   70 1    
   135   69  134 1    
   136   69  135 1    
   137   70   71 1    
   138   71  136 1    
   139   71  137 1    
@<TRIPOS>SUBSTRUCTURE
     1 UNK         1 GROUP             0       ****    0 ROOT    
