@<TRIPOS>MOLECULE
3R136
137   139    1
SMALL
USER_CHARGES


@<TRIPOS>ATOM
      1 CA         30.8957   21.8043    5.1345 C.3       0 UNK        -0.1979 
      2 C          29.8201   22.2493    4.1562 C.2       0 UNK         0.4864 
      3 O          28.6325   22.1552    4.4687 O.2       0 UNK        -0.5359 
      4 N          30.2165   22.7425    2.9755 N.am      1 UNK        -0.4318 
      5 CA         29.3360   23.0852    1.8470 C.3       1 UNK         0.0824 
      6 C6         30.0532   22.9476    0.4729 C.3       12 UNK        -0.0944 
      7 S7         31.1224   21.4604    0.3418 S.3       12 UNK        -0.2672 
      8 C8         32.7271   22.0727   -0.2983 C.3       12 UNK         0.0333 
      9 C9         33.1339   23.4312    0.2594 C.ar      12 UNK        -0.0807 
     10 C10        33.5147   23.5739    1.5967 C.ar      12 UNK        -0.0894 
     11 C11        33.7948   24.8411    2.1183 C.ar      12 UNK        -0.0804 
     12 C12        33.6975   25.9644    1.2909 C.ar      12 UNK        -0.0824 
     13 C13        33.3306   25.8370   -0.0517 C.ar      12 UNK        -0.0762 
     14 C14        33.0800   24.5591   -0.5653 C.ar      12 UNK        -0.0782 
     15 C15        33.2108   27.0969   -0.9127 C.3       12 UNK         0.0230 
     16 S16        31.9809   26.9956   -2.2631 S.3       12 UNK        -0.2608 
     17 C17        30.4706   26.5395   -1.3477 C.3       12 UNK        -0.0989 
     18 CA         29.1785   27.1200   -1.9690 C.3       5 UNK         0.0716 
     19 N          27.9924   26.4308   -1.4596 N.am      5 UNK        -0.4135 
     20 C          26.8321   26.3263   -2.1211 C.2       4 UNK         0.5031 
     21 O          26.6565   26.7199   -3.2750 O.2       4 UNK        -0.5229 
     22 CA         25.6602   25.6890   -1.3568 C.3       4 UNK         0.0329 
     23 CB         25.8624   24.1729   -1.1942 C.3       4 UNK        -0.2001 
     24 N          25.4581   26.3032   -0.0440 N.am      4 UNK        -0.4303 
     25 C          25.0623   27.5653    0.1718 C.2       3 UNK         0.5044 
     26 O          24.7522   28.3457   -0.7283 O.2       3 UNK        -0.5152 
     27 CA         25.0252   28.0644    1.6287 C.3       3 UNK         0.0319 
     28 CB         23.6405   27.8469    2.2687 C.3       3 UNK        -0.2001 
     29 N          26.1122   27.5389    2.4663 N.am      3 UNK        -0.4354 
     30 C          26.3039   26.2942    2.9171 C.2       2 UNK         0.4964 
     31 O          25.5180   25.3613    2.7378 O.2       2 UNK        -0.5047 
     32 CA         27.6249   26.0446    3.6588 C.3       2 UNK         0.0288 
     33 CB         27.4011   26.0337    5.1786 C.3       2 UNK        -0.2113 
     34 N          28.2394   24.7808    3.2557 N.am      2 UNK        -0.4145 
     35 C          28.6713   24.4742    2.0249 C.2       1 UNK         0.5006 
     36 O          28.5781   25.2467    1.0655 O.2       1 UNK        -0.5103 
     37 C          29.0362   28.6347   -1.7347 C.2       5 UNK         0.5055 
     38 O          29.0584   29.4118   -2.6908 O.2       5 UNK        -0.5220 
     39 N          28.8578   29.0143   -0.4656 N.am      6 UNK        -0.4450 
     40 CA         28.6520   30.3720    0.0237 C.3       6 UNK         0.0367 
     41 CB         29.9571   31.1834   -0.0622 C.3       6 UNK        -0.1929 
     42 C          28.1825   30.2611    1.4767 C.2       6 UNK         0.5070 
     43 O          28.3147   29.1932    2.0802 O.2       6 UNK        -0.5237 
     44 N          27.6327   31.3521    2.0190 N.am      7 UNK        -0.4739 
     45 CA         27.1530   31.4077    3.4027 C.3       7 UNK         0.0276 
     46 CB         26.2139   32.6129    3.5702 C.3       7 UNK        -0.1927 
     47 C          28.2896   31.4621    4.4386 C.2       7 UNK         0.5013 
     48 O          28.1297   30.9104    5.5288 O.2       7 UNK        -0.5193 
     49 N          29.4004   32.1271    4.0918 N.am      8 UNK        -0.4253 
     50 CA         30.5322   32.3694    4.9849 C.3       8 UNK         0.0242 
     51 CB         30.2431   33.5948    5.8772 C.3       8 UNK        -0.2000 
     52 C          31.8363   32.5025    4.1843 C.2       8 UNK         0.4948 
     53 O          32.4665   33.5610    4.2027 O.2       8 UNK        -0.5275 
     54 N          32.2314   31.4165    3.5120 N.am      9 UNK        -0.4246 
     55 CA         33.5554   31.2372    2.9098 C.3       9 UNK         0.0261 
     56 CB         33.4081   30.9193    1.4109 C.3       9 UNK        -0.1959 
     57 C          34.2399   30.1043    3.6839 C.2       9 UNK         0.5033 
     58 O          34.3791   28.9955    3.1636 O.2       9 UNK        -0.5390 
     59 N          34.5387   30.3729    4.9646 N.am      10 UNK        -0.4215 
     60 CA         34.8783   29.4242    6.0385 C.3       10 UNK         0.0240 
     61 CB         36.1373   28.5903    5.7226 C.3       10 UNK        -0.1982 
     62 C          33.6740   28.5422    6.4161 C.2       10 UNK         0.4970 
     63 O          33.2211   28.5893    7.5598 O.2       10 UNK        -0.4916 
     64 N          33.1444   27.8142    5.4295 N.am      11 UNK        -0.4279 
     65 CA         31.8094   27.2129    5.4411 C.3       11 UNK         0.1003 
     66 C          30.7570   28.3212    5.1785 C.2       11 UNK         0.5709 
     67 N          29.7602   28.4708    6.0382 N.am      11 UNK        -0.7358 
     68 O          30.8488   29.0501    4.1930 O.2       11 UNK        -0.4999 
     69 C69        31.6970   26.0859    4.3845 C.3       12 UNK        -0.0954 
     70 S70        32.8274   24.6955    4.7254 S.3       12 UNK        -0.2268 
     71 C71        34.2056   25.0013    3.5750 C.3       12 UNK         0.0203 
     72 H72        31.8808   21.7777    4.6689 H         1 UNK         0.0888 
     73 H73        30.6742   20.8047    5.5073 H         1 UNK         0.0888 
     74 H74        30.9357   22.4849    5.9845 H         1 UNK         0.0888 
     75 H75        31.2036   22.8376    2.7845 H         1 UNK         0.3017 
     76 H76        28.5167   22.3630    1.8433 H         1 UNK         0.0873 
     77 H77        30.6353   23.8432    0.2757 H         1 UNK         0.0745 
     78 H78        29.3139   22.9027   -0.3287 H         1 UNK         0.0745 
     79 H79        33.5013   21.3406   -0.0645 H         1 UNK         0.0705 
     80 H80        32.6689   22.1105   -1.3872 H         1 UNK         0.0705 
     81 H81        33.5709   22.7035    2.2362 H         1 UNK         0.1334 
     82 H82        33.9040   26.9454    1.6961 H         1 UNK         0.1417 
     83 H83        32.7972   24.4413   -1.6019 H         1 UNK         0.1562 
     84 H84        34.1872   27.3160   -1.3462 H         1 UNK         0.0748 
     85 H85        32.9523   27.9521   -0.2861 H         1 UNK         0.0748 
     86 H86        30.5674   26.8108   -0.2944 H         1 UNK         0.0940 
     87 H87        30.4139   25.4512   -1.3686 H         1 UNK         0.0940 
     88 H88        29.2274   26.9544   -3.0478 H         1 UNK         0.0703 
     89 H89        28.0617   26.0499   -0.5176 H         1 UNK         0.3081 
     90 H90        24.7530   25.8490   -1.9433 H         1 UNK         0.0719 
     91 H91        26.7332   23.9396   -0.5809 H         1 UNK         0.0809 
     92 H92        24.9934   23.7062   -0.7301 H         1 UNK         0.0809 
     93 H93        26.0078   23.6933   -2.1631 H         1 UNK         0.0809 
     94 H94        25.6518   25.7325    0.7722 H         1 UNK         0.2990 
     95 H95        25.1939   29.1417    1.5872 H         1 UNK         0.0690 
     96 H96        23.6082   28.2372    3.2858 H         1 UNK         0.0788 
     97 H97        23.3642   26.7928    2.3035 H         1 UNK         0.0788 
     98 H98        22.8667   28.3624    1.6984 H         1 UNK         0.0788 
     99 H99        26.8922   28.1860    2.5791 H         1 UNK         0.2993 
    100 H100       28.3299   26.8429    3.4155 H         1 UNK         0.0949 
    101 H101       26.9968   26.9881    5.5189 H         1 UNK         0.0767 
    102 H102       26.6987   25.2540    5.4765 H         1 UNK         0.0767 
    103 H103       28.3344   25.8671    5.7165 H         1 UNK         0.0767 
    104 H104       28.2911   24.0472    3.9550 H         1 UNK         0.3013 
    105 H105       28.8196   28.3211    0.2733 H         1 UNK         0.3121 
    106 H106       27.8686   30.8493   -0.5685 H         1 UNK         0.0774 
    107 H107       30.3267   31.2518   -1.0851 H         1 UNK         0.0815 
    108 H108       30.7359   30.7270    0.5458 H         1 UNK         0.0815 
    109 H109       29.8161   32.2033    0.2966 H         1 UNK         0.0815 
    110 H110       27.5392   32.1910    1.4635 H         1 UNK         0.2987 
    111 H111       26.5748   30.5028    3.6046 H         1 UNK         0.0949 
    112 H112       26.7233   33.5559    3.3682 H         1 UNK         0.0806 
    113 H113       25.3557   32.5433    2.9015 H         1 UNK         0.0806 
    114 H114       25.8252   32.6648    4.5884 H         1 UNK         0.0806 
    115 H115       29.4688   32.5153    3.1617 H         1 UNK         0.3010 
    116 H116       30.6638   31.5038    5.6382 H         1 UNK         0.0829 
    117 H117       29.3641   33.4339    6.5016 H         1 UNK         0.0813 
    118 H118       31.0796   33.7980    6.5471 H         1 UNK         0.0813 
    119 H119       30.0721   34.4933    5.2833 H         1 UNK         0.0813 
    120 H120       31.6673   30.5698    3.5999 H         1 UNK         0.3038 
    121 H121       34.1689   32.1347    3.0127 H         1 UNK         0.0769 
    122 H122       32.8266   30.0116    1.2460 H         1 UNK         0.0811 
    123 H123       34.3843   30.7668    0.9491 H         1 UNK         0.0811 
    124 H124       32.9229   31.7378    0.8797 H         1 UNK         0.0811 
    125 H125       34.3619   31.3168    5.2815 H         1 UNK         0.3204 
    126 H126       35.1080   30.0358    6.9127 H         1 UNK         0.0748 
    127 H127       36.9863   29.2320    5.4876 H         1 UNK         0.0771 
    128 H128       36.4202   27.9799    6.5811 H         1 UNK         0.0771 
    129 H129       35.9904   27.9114    4.8826 H         1 UNK         0.0771 
    130 H130       33.5643   27.9273    4.5112 H         1 UNK         0.2980 
    131 H131       31.6292   26.7790    6.4266 H         1 UNK         0.0545 
    132 H132       29.0954   29.2201    5.8776 H         1 UNK         0.3459 
    133 H133       29.6850   27.8989    6.8637 H         1 UNK         0.3459 
    134 H134       30.6851   25.6795    4.3807 H         1 UNK         0.0616 
    135 H135       31.8688   26.4734    3.3795 H         1 UNK         0.0616 
    136 H136       34.6147   25.9958    3.7578 H         1 UNK         0.0634 
    137 H137       35.0081   24.2971    3.7979 H         1 UNK         0.0634 
@<TRIPOS>BOND
     1    1    2 1    
     2    1   72 1    
     3    1   73 1    
     4    1   74 1    
     5    2    3 2    
     6    2    4 am   BACKBONE|DICT|INTERRES
     7    4    5 1    
     8    4   75 1    
     9    5    6 1    
    10    5   35 1    
    11    5   76 1    
    12    6    7 1    
    13    6   77 1    
    14    6   78 1    
    15    7    8 1    
    16    8    9 1    
    17    8   79 1    
    18    8   80 1    
    19    9   10 ar   
    20    9   14 ar   
    21   10   11 ar   
    22   10   81 1    
    23   11   12 ar   
    24   11   71 1    
    25   12   13 ar   
    26   12   82 1    
    27   13   14 ar   
    28   13   15 1    
    29   14   83 1    
    30   15   16 1    
    31   15   84 1    
    32   15   85 1    
    33   16   17 1    
    34   17   18 1    
    35   17   86 1    
    36   17   87 1    
    37   18   19 1    
    38   18   37 1    
    39   18   88 1    
    40   19   20 am   BACKBONE|DICT|INTERRES
    41   19   89 1    
    42   20   21 2    
    43   20   22 1    
    44   22   23 1    
    45   22   24 1    
    46   22   90 1    
    47   23   91 1    
    48   23   92 1    
    49   23   93 1    
    50   24   25 am   BACKBONE|DICT|INTERRES
    51   24   94 1    
    52   25   26 2    
    53   25   27 1    
    54   27   28 1    
    55   27   29 1    
    56   27   95 1    
    57   28   96 1    
    58   28   97 1    
    59   28   98 1    
    60   29   30 am   BACKBONE|DICT|INTERRES
    61   29   99 1    
    62   30   31 2    
    63   30   32 1    
    64   32   33 1    
    65   32   34 1    
    66   32  100 1    
    67   33  101 1    
    68   33  102 1    
    69   33  103 1    
    70   34   35 am   BACKBONE|DICT|INTERRES
    71   34  104 1    
    72   35   36 2    
    73   37   38 2    
    74   37   39 am   BACKBONE|DICT|INTERRES
    75   39   40 1    
    76   39  105 1    
    77   40   41 1    
    78   40   42 1    
    79   40  106 1    
    80   41  107 1    
    81   41  108 1    
    82   41  109 1    
    83   42   43 2    
    84   42   44 am   BACKBONE|DICT|INTERRES
    85   44   45 1    
    86   44  110 1    
    87   45   46 1    
    88   45   47 1    
    89   45  111 1    
    90   46  112 1    
    91   46  113 1    
    92   46  114 1    
    93   47   48 2    
    94   47   49 am   BACKBONE|DICT|INTERRES
    95   49   50 1    
    96   49  115 1    
    97   50   51 1    
    98   50   52 1    
    99   50  116 1    
   100   51  117 1    
   101   51  118 1    
   102   51  119 1    
   103   52   53 2    
   104   52   54 am   BACKBONE|DICT|INTERRES
   105   54   55 1    
   106   54  120 1    
   107   55   56 1    
   108   55   57 1    
   109   55  121 1    
   110   56  122 1    
   111   56  123 1    
   112   56  124 1    
   113   57   58 2    
   114   57   59 am   BACKBONE|DICT|INTERRES
   115   59   60 1    
   116   59  125 1    
   117   60   61 1    
   118   60   62 1    
   119   60  126 1    
   120   61  127 1    
   121   61  128 1    
   122   61  129 1    
   123   62   63 2    
   124   62   64 am   BACKBONE|DICT|INTERRES
   125   64   65 1    
   126   64  130 1    
   127   65   66 1    
   128   65   69 1    
   129   65  131 1    
   130   66   67 am   BACKBONE|DICT|INTERRES
   131   66   68 2    
   132   67  132 1    
   133   67  133 1    
   134   69   70 1    
   135   69  134 1    
   136   69  135 1    
   137   70   71 1    
   138   71  136 1    
   139   71  137 1    
@<TRIPOS>SUBSTRUCTURE
     1 UNK         1 GROUP             0       ****    0 ROOT    
