@<TRIPOS>MOLECULE
3R136
137   139    1
SMALL
USER_CHARGES


@<TRIPOS>ATOM
      1 CA         30.1987   22.0901    3.6761 C.3       0 UNK        -0.1979 
      2 C          29.7841   21.7599    2.2504 C.2       0 UNK         0.4864 
      3 O          29.4802   20.6048    1.9510 O.2       0 UNK        -0.5359 
      4 N          29.7769   22.7694    1.3699 N.am      1 UNK        -0.4318 
      5 CA         29.4506   22.6581   -0.0588 C.3       1 UNK         0.0824 
      6 C6         29.8056   23.9414   -0.8550 C.3       12 UNK        -0.0944 
      7 S7         31.4668   24.6093   -0.4936 S.3       12 UNK        -0.2672 
      8 C8         31.0621   26.1898    0.3207 C.3       12 UNK         0.0333 
      9 C9         30.6280   26.0008    1.7686 C.ar      12 UNK        -0.0807 
     10 C10        31.5723   26.0680    2.7958 C.ar      12 UNK        -0.0894 
     11 C11        31.1851   25.9297    4.1360 C.ar      12 UNK        -0.0804 
     12 C12        29.8361   25.7007    4.4277 C.ar      12 UNK        -0.0824 
     13 C13        28.8759   25.6266    3.4139 C.ar      12 UNK        -0.0762 
     14 C14        29.2850   25.7809    2.0849 C.ar      12 UNK        -0.0782 
     15 C15        27.4210   25.3413    3.7933 C.3       12 UNK         0.0230 
     16 S16        26.1644   25.9812    2.6302 S.3       12 UNK        -0.2608 
     17 C17        26.3419   27.7894    2.8322 C.3       12 UNK        -0.0989 
     18 CA         26.9635   28.4720    1.5830 C.3       5 UNK         0.0716 
     19 N          26.1451   28.2937    0.3766 N.am      5 UNK        -0.4135 
     20 C          26.4684   27.4924   -0.6438 C.2       4 UNK         0.5031 
     21 O          27.5326   26.8759   -0.7335 O.2       4 UNK        -0.5229 
     22 CA         25.4338   27.3380   -1.7597 C.3       4 UNK         0.0329 
     23 CB         25.7801   28.2235   -2.9700 C.3       4 UNK        -0.2001 
     24 N          25.4396   25.9299   -2.1331 N.am      4 UNK        -0.4303 
     25 C          24.4487   25.2614   -2.7297 C.2       3 UNK         0.5044 
     26 O          23.4183   25.7864   -3.1539 O.2       3 UNK        -0.5152 
     27 CA         24.6309   23.7373   -2.8475 C.3       3 UNK         0.0319 
     28 CB         25.4264   23.3835   -4.1142 C.3       3 UNK        -0.2001 
     29 N          25.2871   23.1381   -1.6793 N.am      3 UNK        -0.4354 
     30 C          24.7867   23.1078   -0.4366 C.2       2 UNK         0.4964 
     31 O          23.6909   23.5818   -0.1355 O.2       2 UNK        -0.5047 
     32 CA         25.6295   22.4376    0.6663 C.3       2 UNK         0.0288 
     33 CB         25.3214   20.9300    0.7520 C.3       2 UNK        -0.2113 
     34 N          27.0799   22.6795    0.6048 N.am      2 UNK        -0.4145 
     35 C          27.9744   22.2854   -0.3166 C.2       1 UNK         0.5006 
     36 O          27.6789   21.6792   -1.3478 O.2       1 UNK        -0.5103 
     37 C          27.3048   29.9563    1.8146 C.2       5 UNK         0.5055 
     38 O          27.6094   30.3430    2.9425 O.2       5 UNK        -0.5220 
     39 N          27.3105   30.7668    0.7451 N.am      6 UNK        -0.4450 
     40 CA         27.7664   32.1629    0.7736 C.3       6 UNK         0.0367 
     41 CB         27.4024   32.8461   -0.5544 C.3       6 UNK        -0.1929 
     42 C          29.2772   32.2942    1.0522 C.2       6 UNK         0.5070 
     43 O          29.7076   33.2917    1.6301 O.2       6 UNK        -0.5237 
     44 N          30.0482   31.2723    0.6561 N.am      7 UNK        -0.4739 
     45 CA         31.4938   31.1697    0.8638 C.3       7 UNK         0.0276 
     46 CB         32.0822   30.2669   -0.2340 C.3       7 UNK        -0.1927 
     47 C          31.8877   30.6456    2.2578 C.2       7 UNK         0.5013 
     48 O          33.0835   30.5909    2.5462 O.2       7 UNK        -0.5193 
     49 N          30.9118   30.2700    3.1020 N.am      8 UNK        -0.4253 
     50 CA         31.1241   29.6275    4.4077 C.3       8 UNK         0.0242 
     51 CB         29.7727   29.2431    5.0261 C.3       8 UNK        -0.2000 
     52 C          31.9683   30.4299    5.4134 C.2       8 UNK         0.4948 
     53 O          32.5554   29.8310    6.3137 O.2       8 UNK        -0.5275 
     54 N          32.0699   31.7527    5.2212 N.am      9 UNK        -0.4246 
     55 CA         32.9778   32.6380    5.9560 C.3       9 UNK         0.0261 
     56 CB         32.7288   34.0908    5.5203 C.3       9 UNK        -0.1959 
     57 C          34.4683   32.2746    5.7934 C.2       9 UNK         0.5033 
     58 O          35.2542   32.5649    6.6965 O.2       9 UNK        -0.5390 
     59 N          34.8344   31.6286    4.6748 N.am      10 UNK        -0.4215 
     60 CA         36.1883   31.1350    4.4124 C.3       10 UNK         0.0240 
     61 CB         36.3535   30.8847    2.9041 C.3       10 UNK        -0.1982 
     62 C          36.5459   29.8654    5.2084 C.2       10 UNK         0.4970 
     63 O          37.7316   29.5437    5.2987 O.2       10 UNK        -0.4916 
     64 N          35.5454   29.1630    5.7601 N.am      11 UNK        -0.4279 
     65 CA         35.7316   27.9356    6.5522 C.3       11 UNK         0.1003 
     66 C          36.2545   28.1816    7.9982 C.2       11 UNK         0.5709 
     67 N          36.3093   29.4144    8.4906 N.am      11 UNK        -0.7358 
     68 O          36.6287   27.2332    8.6843 O.2       11 UNK        -0.4999 
     69 C69        34.4577   27.0486    6.5670 C.3       12 UNK        -0.0954 
     70 S70        33.8305   26.6651    4.8978 S.3       12 UNK        -0.2268 
     71 C71        32.1685   26.0265    5.3061 C.3       12 UNK         0.0203 
     72 H72        30.7982   21.2817    4.0936 H         1 UNK         0.0888 
     73 H73        30.7940   23.0018    3.7186 H         1 UNK         0.0888 
     74 H74        29.3184   22.2233    4.3040 H         1 UNK         0.0888 
     75 H75        30.0774   23.6881    1.6700 H         1 UNK         0.3017 
     76 H76        30.0569   21.8414   -0.4566 H         1 UNK         0.0873 
     77 H77        29.0631   24.7219   -0.6903 H         1 UNK         0.0745 
     78 H78        29.7663   23.7306   -1.9255 H         1 UNK         0.0745 
     79 H79        31.9456   26.8287    0.2850 H         1 UNK         0.0705 
     80 H80        30.2909   26.7157   -0.2446 H         1 UNK         0.0705 
     81 H81        32.6072   26.2379    2.5364 H         1 UNK         0.1334 
     82 H82        29.5307   25.5816    5.4587 H         1 UNK         0.1417 
     83 H83        28.5577   25.7261    1.2889 H         1 UNK         0.1562 
     84 H84        27.2057   25.7443    4.7843 H         1 UNK         0.0748 
     85 H85        27.2957   24.2607    3.8704 H         1 UNK         0.0748 
     86 H86        26.9440   27.9803    3.7221 H         1 UNK         0.0940 
     87 H87        25.3574   28.2100    3.0433 H         1 UNK         0.0940 
     88 H88        27.9430   28.0219    1.4246 H         1 UNK         0.0703 
     89 H89        25.2502   28.7637    0.3730 H         1 UNK         0.3081 
     90 H90        24.4457   27.6029   -1.3771 H         1 UNK         0.0719 
     91 H91        25.0487   28.1075   -3.7700 H         1 UNK         0.0809 
     92 H92        26.7622   27.9802   -3.3779 H         1 UNK         0.0809 
     93 H93        25.7916   29.2783   -2.6933 H         1 UNK         0.0809 
     94 H94        26.2499   25.4220   -1.8014 H         1 UNK         0.2990 
     95 H95        23.6371   23.2929   -2.9329 H         1 UNK         0.0690 
     96 H96        25.4857   22.3042   -4.2563 H         1 UNK         0.0788 
     97 H97        26.4446   23.7726   -4.0742 H         1 UNK         0.0788 
     98 H98        24.9512   23.8010   -5.0031 H         1 UNK         0.0788 
     99 H99        26.1776   22.6702   -1.8298 H         1 UNK         0.2993 
    100 H100       25.3050   22.8878    1.6064 H         1 UNK         0.0949 
    101 H101       25.8485   20.4654    1.5856 H         1 UNK         0.0767 
    102 H102       24.2551   20.7586    0.9062 H         1 UNK         0.0767 
    103 H103       25.6053   20.4028   -0.1593 H         1 UNK         0.0767 
    104 H104       27.4488   23.1999    1.3875 H         1 UNK         0.3013 
    105 H105       27.0559   30.3848   -0.1542 H         1 UNK         0.3121 
    106 H106       27.2379   32.6767    1.5798 H         1 UNK         0.0774 
    107 H107       27.7084   33.8933   -0.5495 H         1 UNK         0.0815 
    108 H108       27.8918   32.3684   -1.4041 H         1 UNK         0.0815 
    109 H109       26.3267   32.8264   -0.7298 H         1 UNK         0.0815 
    110 H110       29.6055   30.4988    0.1821 H         1 UNK         0.2987 
    111 H111       31.9372   32.1627    0.7610 H         1 UNK         0.0949 
    112 H112       31.6749   29.2568   -0.1869 H         1 UNK         0.0806 
    113 H113       31.8776   30.6660   -1.2276 H         1 UNK         0.0806 
    114 H114       33.1661   30.1860   -0.1384 H         1 UNK         0.0806 
    115 H115       29.9502   30.3852    2.8100 H         1 UNK         0.3010 
    116 H116       31.6782   28.7098    4.2104 H         1 UNK         0.0829 
    117 H117       29.2177   28.5733    4.3704 H         1 UNK         0.0813 
    118 H118       29.9095   28.7224    5.9749 H         1 UNK         0.0813 
    119 H119       29.1525   30.1193    5.2183 H         1 UNK         0.0813 
    120 H120       31.5504   32.1615    4.4578 H         1 UNK         0.3038 
    121 H121       32.7360   32.5501    7.0173 H         1 UNK         0.0769 
    122 H122       33.3737   34.7786    6.0693 H         1 UNK         0.0811 
    123 H123       31.6990   34.3929    5.7124 H         1 UNK         0.0811 
    124 H124       32.9294   34.2340    4.4577 H         1 UNK         0.0811 
    125 H125       34.1287   31.3916    3.9806 H         1 UNK         0.3204 
    126 H126       36.8976   31.9125    4.7043 H         1 UNK         0.0748 
    127 H127       37.3808   30.6066    2.6649 H         1 UNK         0.0771 
    128 H128       35.7097   30.0755    2.5569 H         1 UNK         0.0771 
    129 H129       36.1154   31.7760    2.3232 H         1 UNK         0.0771 
    130 H130       34.5910   29.4914    5.6797 H         1 UNK         0.2980 
    131 H131       36.5110   27.3520    6.0586 H         1 UNK         0.0545 
    132 H132       36.0061   30.2011    7.9372 H         1 UNK         0.3459 
    133 H133       36.6551   29.5574    9.4262 H         1 UNK         0.3459 
    134 H134       33.6676   27.5402    7.1367 H         1 UNK         0.0616 
    135 H135       34.6562   26.1015    7.0721 H         1 UNK         0.0616 
    136 H136       32.2765   25.0411    5.7610 H         1 UNK         0.0634 
    137 H137       31.7315   26.6767    6.0657 H         1 UNK         0.0634 
@<TRIPOS>BOND
     1    1    2 1    
     2    1   72 1    
     3    1   73 1    
     4    1   74 1    
     5    2    3 2    
     6    2    4 am   BACKBONE|DICT|INTERRES
     7    4    5 1    
     8    4   75 1    
     9    5    6 1    
    10    5   35 1    
    11    5   76 1    
    12    6    7 1    
    13    6   77 1    
    14    6   78 1    
    15    7    8 1    
    16    8    9 1    
    17    8   79 1    
    18    8   80 1    
    19    9   10 ar   
    20    9   14 ar   
    21   10   11 ar   
    22   10   81 1    
    23   11   12 ar   
    24   11   71 1    
    25   12   13 ar   
    26   12   82 1    
    27   13   14 ar   
    28   13   15 1    
    29   14   83 1    
    30   15   16 1    
    31   15   84 1    
    32   15   85 1    
    33   16   17 1    
    34   17   18 1    
    35   17   86 1    
    36   17   87 1    
    37   18   19 1    
    38   18   37 1    
    39   18   88 1    
    40   19   20 am   BACKBONE|DICT|INTERRES
    41   19   89 1    
    42   20   21 2    
    43   20   22 1    
    44   22   23 1    
    45   22   24 1    
    46   22   90 1    
    47   23   91 1    
    48   23   92 1    
    49   23   93 1    
    50   24   25 am   BACKBONE|DICT|INTERRES
    51   24   94 1    
    52   25   26 2    
    53   25   27 1    
    54   27   28 1    
    55   27   29 1    
    56   27   95 1    
    57   28   96 1    
    58   28   97 1    
    59   28   98 1    
    60   29   30 am   BACKBONE|DICT|INTERRES
    61   29   99 1    
    62   30   31 2    
    63   30   32 1    
    64   32   33 1    
    65   32   34 1    
    66   32  100 1    
    67   33  101 1    
    68   33  102 1    
    69   33  103 1    
    70   34   35 am   BACKBONE|DICT|INTERRES
    71   34  104 1    
    72   35   36 2    
    73   37   38 2    
    74   37   39 am   BACKBONE|DICT|INTERRES
    75   39   40 1    
    76   39  105 1    
    77   40   41 1    
    78   40   42 1    
    79   40  106 1    
    80   41  107 1    
    81   41  108 1    
    82   41  109 1    
    83   42   43 2    
    84   42   44 am   BACKBONE|DICT|INTERRES
    85   44   45 1    
    86   44  110 1    
    87   45   46 1    
    88   45   47 1    
    89   45  111 1    
    90   46  112 1    
    91   46  113 1    
    92   46  114 1    
    93   47   48 2    
    94   47   49 am   BACKBONE|DICT|INTERRES
    95   49   50 1    
    96   49  115 1    
    97   50   51 1    
    98   50   52 1    
    99   50  116 1    
   100   51  117 1    
   101   51  118 1    
   102   51  119 1    
   103   52   53 2    
   104   52   54 am   BACKBONE|DICT|INTERRES
   105   54   55 1    
   106   54  120 1    
   107   55   56 1    
   108   55   57 1    
   109   55  121 1    
   110   56  122 1    
   111   56  123 1    
   112   56  124 1    
   113   57   58 2    
   114   57   59 am   BACKBONE|DICT|INTERRES
   115   59   60 1    
   116   59  125 1    
   117   60   61 1    
   118   60   62 1    
   119   60  126 1    
   120   61  127 1    
   121   61  128 1    
   122   61  129 1    
   123   62   63 2    
   124   62   64 am   BACKBONE|DICT|INTERRES
   125   64   65 1    
   126   64  130 1    
   127   65   66 1    
   128   65   69 1    
   129   65  131 1    
   130   66   67 am   BACKBONE|DICT|INTERRES
   131   66   68 2    
   132   67  132 1    
   133   67  133 1    
   134   69   70 1    
   135   69  134 1    
   136   69  135 1    
   137   70   71 1    
   138   71  136 1    
   139   71  137 1    
@<TRIPOS>SUBSTRUCTURE
     1 UNK         1 GROUP             0       ****    0 ROOT    
