@<TRIPOS>MOLECULE
3R136
137   139    1
SMALL
USER_CHARGES


@<TRIPOS>ATOM
      1 CA         25.9192   22.4811    1.4761 C.3       0 UNK        -0.1979 
      2 C          27.2735   22.7015    0.8190 C.2       0 UNK         0.4864 
      3 O          28.2555   22.0729    1.2143 O.2       0 UNK        -0.5359 
      4 N          27.3315   23.5947   -0.1722 N.am      1 UNK        -0.4318 
      5 CA         28.5283   23.9482   -0.9314 C.3       1 UNK         0.0824 
      6 C6         29.4205   24.9424   -0.1346 C.3       12 UNK        -0.0944 
      7 S7         31.1130   25.0935   -0.7936 S.3       12 UNK        -0.2672 
      8 C8         31.9276   23.6570   -0.0289 C.3       12 UNK         0.0333 
      9 C9         32.2578   23.8908    1.4376 C.ar      12 UNK        -0.0807 
     10 C10        33.3686   24.6648    1.7847 C.ar      12 UNK        -0.0894 
     11 C11        33.7223   24.8393    3.1254 C.ar      12 UNK        -0.0804 
     12 C12        32.9524   24.2353    4.1229 C.ar      12 UNK        -0.0824 
     13 C13        31.8321   23.4679    3.7891 C.ar      12 UNK        -0.0762 
     14 C14        31.4867   23.3004    2.4445 C.ar      12 UNK        -0.0782 
     15 C15        31.0288   22.7873    4.8865 C.3       12 UNK         0.0230 
     16 S16        30.0425   23.9796    5.8429 S.3       12 UNK        -0.2608 
     17 C17        28.5708   24.2160    4.7850 C.3       12 UNK        -0.0989 
     18 CA         28.5076   25.5748    4.0409 C.3       5 UNK         0.0716 
     19 N          27.2625   25.6799    3.2763 N.am      5 UNK        -0.4135 
     20 C          26.9453   26.6796    2.4447 C.2       4 UNK         0.5031 
     21 O          27.7231   27.5857    2.1203 O.2       4 UNK        -0.5229 
     22 CA         25.4955   26.6803    1.9351 C.3       4 UNK         0.0329 
     23 CB         24.5431   27.2693    2.9894 C.3       4 UNK        -0.2001 
     24 N          25.3979   27.4606    0.7020 N.am      4 UNK        -0.4303 
     25 C          25.4358   26.9245   -0.5218 C.2       3 UNK         0.5044 
     26 O          25.3988   25.7090   -0.7267 O.2       3 UNK        -0.5152 
     27 CA         25.6035   27.8760   -1.7198 C.3       3 UNK         0.0319 
     28 CB         25.7499   29.3657   -1.3421 C.3       3 UNK        -0.2001 
     29 N          26.8085   27.4308   -2.4073 N.am      3 UNK        -0.4354 
     30 C          26.9044   27.0196   -3.6764 C.2       2 UNK         0.4964 
     31 O          26.0362   27.1889   -4.5329 O.2       2 UNK        -0.5047 
     32 CA         28.1884   26.2376   -4.0234 C.3       2 UNK         0.0288 
     33 CB         29.2843   27.1866   -4.5346 C.3       2 UNK        -0.2113 
     34 N          28.6942   25.4772   -2.8707 N.am      2 UNK        -0.4145 
     35 C          28.0585   24.4311   -2.3211 C.2       1 UNK         0.5006 
     36 O          27.1008   23.8702   -2.8608 O.2       1 UNK        -0.5103 
     37 C          28.6208   26.7872    4.9914 C.2       5 UNK         0.5055 
     38 O          27.6628   27.0828    5.7099 O.2       5 UNK        -0.5220 
     39 N          29.7682   27.4771    4.9339 N.am      6 UNK        -0.4450 
     40 CA         30.0909   28.7241    5.6409 C.3       6 UNK         0.0367 
     41 CB         30.0398   28.5395    7.1726 C.3       6 UNK        -0.1929 
     42 C          29.2991   29.9615    5.1620 C.2       6 UNK         0.5070 
     43 O          29.3860   31.0079    5.8064 O.2       6 UNK        -0.5237 
     44 N          28.5779   29.8484    4.0366 N.am      7 UNK        -0.4739 
     45 CA         27.9417   30.9686    3.3363 C.3       7 UNK         0.0276 
     46 CB         26.4415   30.6932    3.1579 C.3       7 UNK        -0.1927 
     47 C          28.6065   31.1993    1.9723 C.2       7 UNK         0.5013 
     48 O          28.7860   32.3525    1.5806 O.2       7 UNK        -0.5193 
     49 N          28.9754   30.1086    1.2808 N.am      8 UNK        -0.4253 
     50 CA         29.6815   30.1269   -0.0062 C.3       8 UNK         0.0242 
     51 CB         29.7416   28.6941   -0.5541 C.3       8 UNK        -0.2000 
     52 C          31.1027   30.7164    0.0685 C.2       8 UNK         0.4948 
     53 O          31.5863   31.2643   -0.9229 O.2       8 UNK        -0.5275 
     54 N          31.7368   30.5913    1.2368 N.am      9 UNK        -0.4246 
     55 CA         33.0504   31.1137    1.5882 C.3       9 UNK         0.0261 
     56 CB         34.1504   30.1818    1.0472 C.3       9 UNK        -0.1959 
     57 C          33.0971   31.2178    3.1167 C.2       9 UNK         0.5033 
     58 O          32.2509   30.6217    3.7903 O.2       9 UNK        -0.5390 
     59 N          34.0821   31.9517    3.6490 N.am      10 UNK        -0.4215 
     60 CA         34.2794   32.2013    5.0837 C.3       10 UNK         0.0240 
     61 CB         35.1621   33.4529    5.2529 C.3       10 UNK        -0.1982 
     62 C          34.8322   30.9768    5.8474 C.2       10 UNK         0.4970 
     63 O          35.8643   31.0753    6.5138 O.2       10 UNK        -0.4916 
     64 N          34.1368   29.8429    5.7260 N.am      11 UNK        -0.4279 
     65 CA         34.4770   28.5503    6.3408 C.3       11 UNK         0.1003 
     66 C          34.0742   28.4254    7.8391 C.2       11 UNK         0.5709 
     67 N          33.3709   29.3871    8.4258 N.am      11 UNK        -0.7358 
     68 O          34.4186   27.4397    8.4867 O.2       11 UNK        -0.4999 
     69 C69        33.9243   27.3645    5.5059 C.3       12 UNK        -0.0954 
     70 S70        34.5198   27.4017    3.7805 S.3       12 UNK        -0.2268 
     71 C71        34.9502   25.6607    3.4874 C.3       12 UNK         0.0203 
     72 H72        25.5989   21.4494    1.3337 H         1 UNK         0.0888 
     73 H73        25.9840   22.6724    2.5465 H         1 UNK         0.0888 
     74 H74        25.1533   23.1343    1.0574 H         1 UNK         0.0888 
     75 H75        26.4908   24.0817   -0.4776 H         1 UNK         0.3017 
     76 H76        29.0926   23.0311   -1.1107 H         1 UNK         0.0873 
     77 H77        28.9570   25.9279   -0.0899 H         1 UNK         0.0745 
     78 H78        29.4989   24.6265    0.9058 H         1 UNK         0.0745 
     79 H79        31.3033   22.7704   -0.1482 H         1 UNK         0.0705 
     80 H80        32.8497   23.4502   -0.5742 H         1 UNK         0.0705 
     81 H81        33.9648   25.1230    1.0071 H         1 UNK         0.1334 
     82 H82        33.2251   24.3573    5.1621 H         1 UNK         0.1417 
     83 H83        30.6300   22.6948    2.1801 H         1 UNK         0.1562 
     84 H84        31.7172   22.2831    5.5664 H         1 UNK         0.0748 
     85 H85        30.3837   22.0066    4.4803 H         1 UNK         0.0748 
     86 H86        27.6944   24.1015    5.4260 H         1 UNK         0.0940 
     87 H87        28.5142   23.4009    4.0614 H         1 UNK         0.0940 
     88 H88        29.3331   25.6088    3.3260 H         1 UNK         0.0703 
     89 H89        26.5402   25.0223    3.5273 H         1 UNK         0.3081 
     90 H90        25.1946   25.6465    1.7532 H         1 UNK         0.0719 
     91 H91        24.8012   28.2926    3.2567 H         1 UNK         0.0809 
     92 H92        23.5130   27.2691    2.6327 H         1 UNK         0.0809 
     93 H93        24.5639   26.6833    3.9092 H         1 UNK         0.0809 
     94 H94        25.4928   28.4609    0.7934 H         1 UNK         0.2990 
     95 H95        24.7269   27.7537   -2.3593 H         1 UNK         0.0690 
     96 H96        25.8982   29.9765   -2.2329 H         1 UNK         0.0788 
     97 H97        26.5979   29.5462   -0.6804 H         1 UNK         0.0788 
     98 H98        24.8513   29.7394   -0.8494 H         1 UNK         0.0788 
     99 H99        27.5778   27.1964   -1.7999 H         1 UNK         0.2993 
    100 H100       27.9425   25.5314   -4.8196 H         1 UNK         0.0949 
    101 H101       29.5680   27.9236   -3.7830 H         1 UNK         0.0767 
    102 H102       30.1811   26.6379   -4.8231 H         1 UNK         0.0767 
    103 H103       28.9436   27.7342   -5.4145 H         1 UNK         0.0767 
    104 H104       29.5244   25.8261   -2.4081 H         1 UNK         0.3013 
    105 H105       30.4855   27.1451    4.3034 H         1 UNK         0.3121 
    106 H106       31.1276   28.9389    5.3878 H         1 UNK         0.0774 
    107 H107       30.4415   29.4145    7.6847 H         1 UNK         0.0815 
    108 H108       29.0212   28.3970    7.5331 H         1 UNK         0.0815 
    109 H109       30.6336   27.6819    7.4889 H         1 UNK         0.0815 
    110 H110       28.5214   28.9431    3.5867 H         1 UNK         0.2987 
    111 H111       28.0490   31.8901    3.9129 H         1 UNK         0.0949 
    112 H112       25.9349   31.5658    2.7437 H         1 UNK         0.0806 
    113 H113       26.2651   29.8643    2.4746 H         1 UNK         0.0806 
    114 H114       25.9633   30.4596    4.1093 H         1 UNK         0.0806 
    115 H115       28.7133   29.1945    1.6376 H         1 UNK         0.3010 
    116 H116       29.1022   30.7418   -0.6982 H         1 UNK         0.0829 
    117 H117       28.7453   28.2675   -0.6414 H         1 UNK         0.0813 
    118 H118       30.2018   28.6714   -1.5424 H         1 UNK         0.0813 
    119 H119       30.3290   28.0426    0.0946 H         1 UNK         0.0813 
    120 H120       31.2502   30.1790    2.0241 H         1 UNK         0.3038 
    121 H121       33.1659   32.1149    1.1678 H         1 UNK         0.0769 
    122 H122       34.0271   29.1625    1.4136 H         1 UNK         0.0811 
    123 H123       35.1429   30.5204    1.3461 H         1 UNK         0.0811 
    124 H124       34.1371   30.1452   -0.0421 H         1 UNK         0.0811 
    125 H125       34.7573   32.3736    3.0273 H         1 UNK         0.3204 
    126 H126       33.3056   32.4276    5.5236 H         1 UNK         0.0748 
    127 H127       35.2855   33.7064    6.3068 H         1 UNK         0.0771 
    128 H128       36.1582   33.3046    4.8338 H         1 UNK         0.0771 
    129 H129       34.7180   34.3211    4.7655 H         1 UNK         0.0771 
    130 H130       33.3183   29.8619    5.1237 H         1 UNK         0.2980 
    131 H131       35.5652   28.4645    6.3308 H         1 UNK         0.0545 
    132 H132       33.1265   29.2946    9.3989 H         1 UNK         0.3459 
    133 H133       33.0956   30.2063    7.9100 H         1 UNK         0.3459 
    134 H134       32.8345   27.3648    5.4964 H         1 UNK         0.0616 
    135 H135       34.2218   26.4195    5.9624 H         1 UNK         0.0616 
    136 H136       35.4529   25.2416    4.3602 H         1 UNK         0.0634 
    137 H137       35.6757   25.6172    2.6738 H         1 UNK         0.0634 
@<TRIPOS>BOND
     1    1    2 1    
     2    1   72 1    
     3    1   73 1    
     4    1   74 1    
     5    2    3 2    
     6    2    4 am   BACKBONE|DICT|INTERRES
     7    4    5 1    
     8    4   75 1    
     9    5    6 1    
    10    5   35 1    
    11    5   76 1    
    12    6    7 1    
    13    6   77 1    
    14    6   78 1    
    15    7    8 1    
    16    8    9 1    
    17    8   79 1    
    18    8   80 1    
    19    9   10 ar   
    20    9   14 ar   
    21   10   11 ar   
    22   10   81 1    
    23   11   12 ar   
    24   11   71 1    
    25   12   13 ar   
    26   12   82 1    
    27   13   14 ar   
    28   13   15 1    
    29   14   83 1    
    30   15   16 1    
    31   15   84 1    
    32   15   85 1    
    33   16   17 1    
    34   17   18 1    
    35   17   86 1    
    36   17   87 1    
    37   18   19 1    
    38   18   37 1    
    39   18   88 1    
    40   19   20 am   BACKBONE|DICT|INTERRES
    41   19   89 1    
    42   20   21 2    
    43   20   22 1    
    44   22   23 1    
    45   22   24 1    
    46   22   90 1    
    47   23   91 1    
    48   23   92 1    
    49   23   93 1    
    50   24   25 am   BACKBONE|DICT|INTERRES
    51   24   94 1    
    52   25   26 2    
    53   25   27 1    
    54   27   28 1    
    55   27   29 1    
    56   27   95 1    
    57   28   96 1    
    58   28   97 1    
    59   28   98 1    
    60   29   30 am   BACKBONE|DICT|INTERRES
    61   29   99 1    
    62   30   31 2    
    63   30   32 1    
    64   32   33 1    
    65   32   34 1    
    66   32  100 1    
    67   33  101 1    
    68   33  102 1    
    69   33  103 1    
    70   34   35 am   BACKBONE|DICT|INTERRES
    71   34  104 1    
    72   35   36 2    
    73   37   38 2    
    74   37   39 am   BACKBONE|DICT|INTERRES
    75   39   40 1    
    76   39  105 1    
    77   40   41 1    
    78   40   42 1    
    79   40  106 1    
    80   41  107 1    
    81   41  108 1    
    82   41  109 1    
    83   42   43 2    
    84   42   44 am   BACKBONE|DICT|INTERRES
    85   44   45 1    
    86   44  110 1    
    87   45   46 1    
    88   45   47 1    
    89   45  111 1    
    90   46  112 1    
    91   46  113 1    
    92   46  114 1    
    93   47   48 2    
    94   47   49 am   BACKBONE|DICT|INTERRES
    95   49   50 1    
    96   49  115 1    
    97   50   51 1    
    98   50   52 1    
    99   50  116 1    
   100   51  117 1    
   101   51  118 1    
   102   51  119 1    
   103   52   53 2    
   104   52   54 am   BACKBONE|DICT|INTERRES
   105   54   55 1    
   106   54  120 1    
   107   55   56 1    
   108   55   57 1    
   109   55  121 1    
   110   56  122 1    
   111   56  123 1    
   112   56  124 1    
   113   57   58 2    
   114   57   59 am   BACKBONE|DICT|INTERRES
   115   59   60 1    
   116   59  125 1    
   117   60   61 1    
   118   60   62 1    
   119   60  126 1    
   120   61  127 1    
   121   61  128 1    
   122   61  129 1    
   123   62   63 2    
   124   62   64 am   BACKBONE|DICT|INTERRES
   125   64   65 1    
   126   64  130 1    
   127   65   66 1    
   128   65   69 1    
   129   65  131 1    
   130   66   67 am   BACKBONE|DICT|INTERRES
   131   66   68 2    
   132   67  132 1    
   133   67  133 1    
   134   69   70 1    
   135   69  134 1    
   136   69  135 1    
   137   70   71 1    
   138   71  136 1    
   139   71  137 1    
@<TRIPOS>SUBSTRUCTURE
     1 UNK         1 GROUP             0       ****    0 ROOT    
