@<TRIPOS>MOLECULE
3R136
137   139    1
SMALL
USER_CHARGES


@<TRIPOS>ATOM
      1 CA         27.7408   17.7929    1.6644 C.3       0 UNK        -0.1979 
      2 C          27.8716   18.9241    0.6552 C.2       0 UNK         0.4864 
      3 O          27.4513   18.7695   -0.4922 O.2       0 UNK        -0.5359 
      4 N          28.4527   20.0577    1.0740 N.am      1 UNK        -0.4318 
      5 CA         28.6460   21.2585    0.2480 C.3       1 UNK         0.0824 
      6 C6         29.6697   22.2313    0.8945 C.3       12 UNK        -0.0944 
      7 S7         30.7946   22.9844   -0.3274 S.3       12 UNK        -0.2672 
      8 C8         32.2941   23.2732    0.6660 C.3       12 UNK         0.0333 
      9 C9         32.1557   24.4990    1.5583 C.ar      12 UNK        -0.0807 
     10 C10        32.7199   25.7202    1.1752 C.ar      12 UNK        -0.0894 
     11 C11        32.6110   26.8460    1.9991 C.ar      12 UNK        -0.0804 
     12 C12        31.9293   26.7387    3.2151 C.ar      12 UNK        -0.0824 
     13 C13        31.3180   25.5377    3.5847 C.ar      12 UNK        -0.0762 
     14 C14        31.4617   24.4142    2.7679 C.ar      12 UNK        -0.0782 
     15 C15        30.4597   25.4625    4.8388 C.3       12 UNK         0.0230 
     16 S16        28.9576   26.4925    4.7102 S.3       12 UNK        -0.2608 
     17 C17        28.2001   25.9628    3.1296 C.3       12 UNK        -0.0989 
     18 CA         28.5209   26.9274    1.9544 C.3       5 UNK         0.0716 
     19 N          28.1332   26.3606    0.6606 N.am      5 UNK        -0.4135 
     20 C          28.6617   26.7333   -0.5178 C.2       4 UNK         0.5031 
     21 O          29.6391   27.4772   -0.6142 O.2       4 UNK        -0.5229 
     22 CA         27.9745   26.2595   -1.8144 C.3       4 UNK         0.0329 
     23 CB         28.8222   25.2152   -2.5545 C.3       4 UNK        -0.2001 
     24 N          26.6208   25.7409   -1.6054 N.am      4 UNK        -0.4303 
     25 C          25.5580   26.5127   -1.3301 C.2       3 UNK         0.5044 
     26 O          25.5996   27.7433   -1.3134 O.2       3 UNK        -0.5152 
     27 CA         24.2259   25.8131   -0.9959 C.3       3 UNK         0.0319 
     28 CB         23.2734   25.8720   -2.2013 C.3       3 UNK        -0.2001 
     29 N          24.3467   24.4201   -0.5524 N.am      3 UNK        -0.4354 
     30 C          25.0324   23.9888    0.5155 C.2       2 UNK         0.4964 
     31 O          25.6945   24.7279    1.2459 O.2       2 UNK        -0.5047 
     32 CA         25.0073   22.4757    0.8087 C.3       2 UNK         0.0288 
     33 CB         24.1345   21.6495   -0.1652 C.3       2 UNK        -0.2113 
     34 N          26.3602   21.9127    0.8755 N.am      2 UNK        -0.4145 
     35 C          27.3118   21.9708   -0.0720 C.2       1 UNK         0.5006 
     36 O          27.1666   22.5373   -1.1572 O.2       1 UNK        -0.5103 
     37 C          27.8727   28.3222    2.0941 C.2       5 UNK         0.5055 
     38 O          26.8203   28.4622    2.7207 O.2       5 UNK        -0.5220 
     39 N          28.4870   29.3198    1.4443 N.am      6 UNK        -0.4450 
     40 CA         28.0201   30.7076    1.3939 C.3       6 UNK         0.0367 
     41 CB         28.7538   31.4405    0.2592 C.3       6 UNK        -0.1929 
     42 C          28.2001   31.4633    2.7219 C.2       6 UNK         0.5070 
     43 O          27.4659   32.4181    2.9782 O.2       6 UNK        -0.5237 
     44 N          29.1675   31.0316    3.5348 N.am      7 UNK        -0.4739 
     45 CA         29.5011   31.5646    4.8504 C.3       7 UNK         0.0276 
     46 CB         30.3475   32.8412    4.6960 C.3       7 UNK        -0.1927 
     47 C          30.2617   30.4789    5.6203 C.2       7 UNK         0.5013 
     48 O          30.6190   29.4540    5.0349 O.2       7 UNK        -0.5193 
     49 N          30.5134   30.7189    6.9133 N.am      8 UNK        -0.4253 
     50 CA         31.2745   29.8335    7.7992 C.3       8 UNK         0.0242 
     51 CB         31.0741   30.2895    9.2562 C.3       8 UNK        -0.2000 
     52 C          32.7635   29.7881    7.4066 C.2       8 UNK         0.4948 
     53 O          33.5709   30.5318    7.9667 O.2       8 UNK        -0.5275 
     54 N          33.0804   28.9617    6.4007 N.am      9 UNK        -0.4246 
     55 CA         34.3824   28.7159    5.7604 C.3       9 UNK         0.0261 
     56 CB         35.4188   28.1847    6.7690 C.3       9 UNK        -0.1959 
     57 C          34.9455   29.9084    4.9645 C.2       9 UNK         0.5033 
     58 O          35.5255   29.6999    3.8984 O.2       9 UNK        -0.5390 
     59 N          34.7549   31.1350    5.4601 N.am      10 UNK        -0.4215 
     60 CA         35.1570   32.3923    4.8282 C.3       10 UNK         0.0240 
     61 CB         35.2854   33.4708    5.9207 C.3       10 UNK        -0.1982 
     62 C          34.1958   32.8056    3.6945 C.2       10 UNK         0.4970 
     63 O          33.6227   33.8952    3.7445 O.2       10 UNK        -0.4916 
     64 N          34.0266   31.9275    2.6971 N.am      11 UNK        -0.4279 
     65 CA         33.1813   32.1496    1.5100 C.3       11 UNK         0.1003 
     66 C          33.6816   33.2731    0.5537 C.2       11 UNK         0.5709 
     67 N          34.9386   33.6968    0.6213 N.am      11 UNK        -0.7358 
     68 O          32.9104   33.7709   -0.2629 O.2       11 UNK        -0.4999 
     69 C69        32.9386   30.8405    0.7137 C.3       12 UNK        -0.0954 
     70 S70        32.0517   29.5612    1.6634 S.3       12 UNK        -0.2268 
     71 C71        33.2282   28.1708    1.5671 C.3       12 UNK         0.0203 
     72 H72        28.1574   18.0608    2.6352 H         1 UNK         0.0888 
     73 H73        26.6913   17.5356    1.8053 H         1 UNK         0.0888 
     74 H74        28.2635   16.9071    1.3045 H         1 UNK         0.0888 
     75 H75        28.7893   20.1143    2.0249 H         1 UNK         0.3017 
     76 H76        29.0492   20.9097   -0.7058 H         1 UNK         0.0873 
     77 H77        30.2906   21.6920    1.6112 H         1 UNK         0.0745 
     78 H78        29.1806   23.0230    1.4655 H         1 UNK         0.0745 
     79 H79        33.1379   23.4009   -0.0137 H         1 UNK         0.0705 
     80 H80        32.5245   22.3917    1.2661 H         1 UNK         0.0705 
     81 H81        33.2452   25.7929    0.2326 H         1 UNK         0.1334 
     82 H82        31.8230   27.6081    3.8463 H         1 UNK         0.1417 
     83 H83        31.0107   23.4778    3.0631 H         1 UNK         0.1562 
     84 H84        31.0450   25.7963    5.6966 H         1 UNK         0.0748 
     85 H85        30.1642   24.4335    5.0492 H         1 UNK         0.0748 
     86 H86        27.1219   25.8721    3.2735 H         1 UNK         0.0940 
     87 H87        28.5487   24.9570    2.8945 H         1 UNK         0.0940 
     88 H88        29.6007   27.0732    1.9370 H         1 UNK         0.0703 
     89 H89        27.2999   25.7809    0.6679 H         1 UNK         0.3081 
     90 H90        27.9023   27.1354   -2.4629 H         1 UNK         0.0719 
     91 H91        29.8422   25.5713   -2.7056 H         1 UNK         0.0809 
     92 H92        28.8831   24.2818   -1.9997 H         1 UNK         0.0809 
     93 H93        28.4069   24.9920   -3.5372 H         1 UNK         0.0809 
     94 H94        26.5154   24.7334   -1.5864 H         1 UNK         0.2990 
     95 H95        23.7724   26.3732   -0.1756 H         1 UNK         0.0690 
     96 H96        22.2877   25.4798   -1.9497 H         1 UNK         0.0788 
     97 H97        23.6582   25.3009   -3.0472 H         1 UNK         0.0788 
     98 H98        23.1328   26.8998   -2.5393 H         1 UNK         0.0788 
     99 H99        23.8593   23.7300   -1.1057 H         1 UNK         0.2993 
    100 H100       24.5778   22.3732    1.8065 H         1 UNK         0.0949 
    101 H101       24.1231   20.5979    0.1225 H         1 UNK         0.0767 
    102 H102       23.0977   21.9887   -0.1577 H         1 UNK         0.0767 
    103 H103       24.4994   21.7002   -1.1920 H         1 UNK         0.0767 
    104 H104       26.5930   21.4446    1.7395 H         1 UNK         0.3013 
    105 H105       29.3133   29.0916    0.9024 H         1 UNK         0.3121 
    106 H106       26.9529   30.6974    1.1620 H         1 UNK         0.0774 
    107 H107       28.5929   30.9497   -0.7009 H         1 UNK         0.0815 
    108 H108       28.3958   32.4664    0.1626 H         1 UNK         0.0815 
    109 H109       29.8287   31.4871    0.4377 H         1 UNK         0.0815 
    110 H110       29.6986   30.2049    3.2839 H         1 UNK         0.2987 
    111 H111       28.5799   31.7886    5.3927 H         1 UNK         0.0949 
    112 H112       29.8082   33.6156    4.1506 H         1 UNK         0.0806 
    113 H113       30.6214   33.2626    5.6637 H         1 UNK         0.0806 
    114 H114       31.2702   32.6360    4.1554 H         1 UNK         0.0806 
    115 H115       30.2051   31.5935    7.3130 H         1 UNK         0.3010 
    116 H116       30.8707   28.8223    7.7082 H         1 UNK         0.0829 
    117 H117       30.0254   30.2339    9.5488 H         1 UNK         0.0813 
    118 H118       31.6349   29.6544    9.9432 H         1 UNK         0.0813 
    119 H119       31.4122   31.3149    9.4121 H         1 UNK         0.0813 
    120 H120       32.2889   28.5388    5.9275 H         1 UNK         0.3038 
    121 H121       34.2015   27.9231    5.0326 H         1 UNK         0.0769 
    122 H122       36.3459   27.9106    6.2639 H         1 UNK         0.0811 
    123 H123       35.0534   27.2943    7.2805 H         1 UNK         0.0811 
    124 H124       35.6716   28.9273    7.5264 H         1 UNK         0.0811 
    125 H125       34.2873   31.1953    6.3619 H         1 UNK         0.3204 
    126 H126       36.1431   32.2573    4.3788 H         1 UNK         0.0748 
    127 H127       35.6235   34.4186    5.4994 H         1 UNK         0.0771 
    128 H128       34.3329   33.6545    6.4199 H         1 UNK         0.0771 
    129 H129       36.0106   33.1800    6.6812 H         1 UNK         0.0771 
    130 H130       34.5211   31.0436    2.7502 H         1 UNK         0.2980 
    131 H131       32.2103   32.4890    1.8754 H         1 UNK         0.0545 
    132 H132       35.2468   34.4267   -0.0014 H         1 UNK         0.3459 
    133 H133       35.5809   33.2924    1.2828 H         1 UNK         0.3459 
    134 H134       32.3372   31.0383   -0.1756 H         1 UNK         0.0616 
    135 H135       33.8882   30.4438    0.3508 H         1 UNK         0.0616 
    136 H136       33.5929   28.0946    0.5416 H         1 UNK         0.0634 
    137 H137       34.0947   28.3820    2.1915 H         1 UNK         0.0634 
@<TRIPOS>BOND
     1    1    2 1    
     2    1   72 1    
     3    1   73 1    
     4    1   74 1    
     5    2    3 2    
     6    2    4 am   BACKBONE|DICT|INTERRES
     7    4    5 1    
     8    4   75 1    
     9    5    6 1    
    10    5   35 1    
    11    5   76 1    
    12    6    7 1    
    13    6   77 1    
    14    6   78 1    
    15    7    8 1    
    16    8    9 1    
    17    8   79 1    
    18    8   80 1    
    19    9   10 ar   
    20    9   14 ar   
    21   10   11 ar   
    22   10   81 1    
    23   11   12 ar   
    24   11   71 1    
    25   12   13 ar   
    26   12   82 1    
    27   13   14 ar   
    28   13   15 1    
    29   14   83 1    
    30   15   16 1    
    31   15   84 1    
    32   15   85 1    
    33   16   17 1    
    34   17   18 1    
    35   17   86 1    
    36   17   87 1    
    37   18   19 1    
    38   18   37 1    
    39   18   88 1    
    40   19   20 am   BACKBONE|DICT|INTERRES
    41   19   89 1    
    42   20   21 2    
    43   20   22 1    
    44   22   23 1    
    45   22   24 1    
    46   22   90 1    
    47   23   91 1    
    48   23   92 1    
    49   23   93 1    
    50   24   25 am   BACKBONE|DICT|INTERRES
    51   24   94 1    
    52   25   26 2    
    53   25   27 1    
    54   27   28 1    
    55   27   29 1    
    56   27   95 1    
    57   28   96 1    
    58   28   97 1    
    59   28   98 1    
    60   29   30 am   BACKBONE|DICT|INTERRES
    61   29   99 1    
    62   30   31 2    
    63   30   32 1    
    64   32   33 1    
    65   32   34 1    
    66   32  100 1    
    67   33  101 1    
    68   33  102 1    
    69   33  103 1    
    70   34   35 am   BACKBONE|DICT|INTERRES
    71   34  104 1    
    72   35   36 2    
    73   37   38 2    
    74   37   39 am   BACKBONE|DICT|INTERRES
    75   39   40 1    
    76   39  105 1    
    77   40   41 1    
    78   40   42 1    
    79   40  106 1    
    80   41  107 1    
    81   41  108 1    
    82   41  109 1    
    83   42   43 2    
    84   42   44 am   BACKBONE|DICT|INTERRES
    85   44   45 1    
    86   44  110 1    
    87   45   46 1    
    88   45   47 1    
    89   45  111 1    
    90   46  112 1    
    91   46  113 1    
    92   46  114 1    
    93   47   48 2    
    94   47   49 am   BACKBONE|DICT|INTERRES
    95   49   50 1    
    96   49  115 1    
    97   50   51 1    
    98   50   52 1    
    99   50  116 1    
   100   51  117 1    
   101   51  118 1    
   102   51  119 1    
   103   52   53 2    
   104   52   54 am   BACKBONE|DICT|INTERRES
   105   54   55 1    
   106   54  120 1    
   107   55   56 1    
   108   55   57 1    
   109   55  121 1    
   110   56  122 1    
   111   56  123 1    
   112   56  124 1    
   113   57   58 2    
   114   57   59 am   BACKBONE|DICT|INTERRES
   115   59   60 1    
   116   59  125 1    
   117   60   61 1    
   118   60   62 1    
   119   60  126 1    
   120   61  127 1    
   121   61  128 1    
   122   61  129 1    
   123   62   63 2    
   124   62   64 am   BACKBONE|DICT|INTERRES
   125   64   65 1    
   126   64  130 1    
   127   65   66 1    
   128   65   69 1    
   129   65  131 1    
   130   66   67 am   BACKBONE|DICT|INTERRES
   131   66   68 2    
   132   67  132 1    
   133   67  133 1    
   134   69   70 1    
   135   69  134 1    
   136   69  135 1    
   137   70   71 1    
   138   71  136 1    
   139   71  137 1    
@<TRIPOS>SUBSTRUCTURE
     1 UNK         1 GROUP             0       ****    0 ROOT    
