@<TRIPOS>MOLECULE
3R136
137   139    1
SMALL
USER_CHARGES


@<TRIPOS>ATOM
      1 CA         32.9267   25.0827   -0.3154 C.3       0 UNK        -0.1979 
      2 C          31.5271   25.2050    0.2663 C.2       0 UNK         0.4864 
      3 O          31.0056   26.3136    0.3683 O.2       0 UNK        -0.5359 
      4 N          30.9157   24.0791    0.6516 N.am      1 UNK        -0.4318 
      5 CA         29.5558   24.0300    1.1867 C.3       1 UNK         0.0824 
      6 C6         29.3699   22.8336    2.1584 C.3       12 UNK        -0.0944 
      7 S7         27.8784   22.9996    3.1967 S.3       12 UNK        -0.2672 
      8 C8         28.5830   23.6690    4.7398 C.3       12 UNK         0.0333 
      9 C9         29.0374   25.1106    4.5646 C.ar      12 UNK        -0.0807 
     10 C10        30.3704   25.4046    4.2607 C.ar      12 UNK        -0.0894 
     11 C11        30.7745   26.7256    4.0473 C.ar      12 UNK        -0.0804 
     12 C12        29.8404   27.7596    4.1613 C.ar      12 UNK        -0.0824 
     13 C13        28.5118   27.4799    4.4948 C.ar      12 UNK        -0.0762 
     14 C14        28.1164   26.1536    4.6922 C.ar      12 UNK        -0.0782 
     15 C15        27.5025   28.6051    4.6649 C.3       12 UNK         0.0230 
     16 S16        26.2208   28.5746    3.3728 S.3       12 UNK        -0.2608 
     17 C17        27.1173   29.2465    1.9328 C.3       12 UNK        -0.0989 
     18 CA         27.4054   28.1853    0.8328 C.3       5 UNK         0.0716 
     19 N          26.2277   27.4593    0.3395 N.am      5 UNK        -0.4135 
     20 C          25.1130   27.9879   -0.1892 C.2       4 UNK         0.5031 
     21 O          24.8744   29.1953   -0.2377 O.2       4 UNK        -0.5229 
     22 CA         24.0818   27.0234   -0.8052 C.3       4 UNK         0.0329 
     23 CB         24.0739   27.1623   -2.3373 C.3       4 UNK        -0.2001 
     24 N          24.2948   25.6152   -0.4730 N.am      4 UNK        -0.4303 
     25 C          24.0134   25.0242    0.6931 C.2       3 UNK         0.5044 
     26 O          23.5404   25.6202    1.6606 O.2       3 UNK        -0.5152 
     27 CA         24.3090   23.5139    0.8107 C.3       3 UNK         0.0319 
     28 CB         23.0826   22.6781    0.3961 C.3       3 UNK        -0.2001 
     29 N          25.5268   23.0622    0.1165 N.am      3 UNK        -0.4354 
     30 C          25.8099   23.0571   -1.1976 C.2       2 UNK         0.4964 
     31 O          25.0064   23.3951   -2.0679 O.2       2 UNK        -0.5047 
     32 CA         27.2459   22.6588   -1.6033 C.3       2 UNK         0.0288 
     33 CB         27.6886   23.3255   -2.9244 C.3       2 UNK        -0.2113 
     34 N          28.2419   22.8996   -0.5485 N.am      2 UNK        -0.4145 
     35 C          28.5378   24.0741    0.0325 C.2       1 UNK         0.5006 
     36 O          28.0348   25.1520   -0.2938 O.2       1 UNK        -0.5103 
     37 C          28.1602   28.7769   -0.3727 C.2       5 UNK         0.5055 
     38 O          28.1127   29.9876   -0.6053 O.2       5 UNK        -0.5220 
     39 N          28.7961   27.8939   -1.1563 N.am      6 UNK        -0.4450 
     40 CA         29.6061   28.2500   -2.3266 C.3       6 UNK         0.0367 
     41 CB         30.0284   26.9725   -3.0698 C.3       6 UNK        -0.1929 
     42 C          30.8297   29.1150   -1.9665 C.2       6 UNK         0.5070 
     43 O          31.1433   30.0572   -2.6954 O.2       6 UNK        -0.5237 
     44 N          31.4671   28.8004   -0.8347 N.am      7 UNK        -0.4739 
     45 CA         32.4546   29.6307   -0.1516 C.3       7 UNK         0.0276 
     46 CB         33.6315   28.7405    0.2822 C.3       7 UNK        -0.1927 
     47 C          31.7994   30.2886    1.0736 C.2       7 UNK         0.5013 
     48 O          30.7596   29.8245    1.5485 O.2       7 UNK        -0.5193 
     49 N          32.4327   31.3527    1.5824 N.am      8 UNK        -0.4253 
     50 CA         32.0246   32.0439    2.8083 C.3       8 UNK         0.0242 
     51 CB         32.8288   33.3479    2.9397 C.3       8 UNK        -0.2000 
     52 C          32.2323   31.1635    4.0517 C.2       8 UNK         0.4948 
     53 O          33.1543   30.3474    4.0734 O.2       8 UNK        -0.5275 
     54 N          31.4181   31.3931    5.0917 N.am      9 UNK        -0.4246 
     55 CA         31.3952   30.6435    6.3589 C.3       9 UNK         0.0261 
     56 CB         30.1993   31.1257    7.1976 C.3       9 UNK        -0.1959 
     57 C          32.6975   30.6727    7.1903 C.2       9 UNK         0.5033 
     58 O          32.7944   29.9455    8.1793 O.2       9 UNK        -0.5390 
     59 N          33.6812   31.4801    6.7723 N.am      10 UNK        -0.4215 
     60 CA         35.0602   31.4757    7.2650 C.3       10 UNK         0.0240 
     61 CB         35.7451   32.7779    6.8150 C.3       10 UNK        -0.1982 
     62 C          35.8788   30.2446    6.8134 C.2       10 UNK         0.4970 
     63 O          37.0045   30.0845    7.2879 O.2       10 UNK        -0.4916 
     64 N          35.3278   29.4211    5.9077 N.am      11 UNK        -0.4279 
     65 CA         35.8829   28.1520    5.4107 C.3       11 UNK         0.1003 
     66 C          36.3656   27.1614    6.5130 C.2       11 UNK         0.5709 
     67 N          37.3698   26.3481    6.2122 N.am      11 UNK        -0.7358 
     68 O          35.8237   27.0952    7.6153 O.2       11 UNK        -0.4999 
     69 C69        34.8974   27.4644    4.4238 C.3       12 UNK        -0.0954 
     70 S70        33.2732   27.0569    5.1592 S.3       12 UNK        -0.2268 
     71 C71        32.2176   27.0312    3.6816 C.3       12 UNK         0.0203 
     72 H72        33.1907   24.0468   -0.5271 H         1 UNK         0.0888 
     73 H73        32.9967   25.6471   -1.2451 H         1 UNK         0.0888 
     74 H74        33.6585   25.4860    0.3837 H         1 UNK         0.0888 
     75 H75        31.3840   23.1920    0.5332 H         1 UNK         0.3017 
     76 H76        29.3907   24.9436    1.7608 H         1 UNK         0.0873 
     77 H77        30.2356   22.7576    2.8176 H         1 UNK         0.0745 
     78 H78        29.3344   21.8773    1.6351 H         1 UNK         0.0745 
     79 H79        27.8258   23.6160    5.5236 H         1 UNK         0.0705 
     80 H80        29.4093   23.0401    5.0749 H         1 UNK         0.0705 
     81 H81        31.0926   24.6055    4.1673 H         1 UNK         0.1334 
     82 H82        30.1517   28.7812    3.9911 H         1 UNK         0.1417 
     83 H83        27.0849   25.9334    4.9327 H         1 UNK         0.1562 
     84 H84        27.9937   29.5795    4.6750 H         1 UNK         0.0748 
     85 H85        27.0196   28.5002    5.6374 H         1 UNK         0.0748 
     86 H86        28.0570   29.6900    2.2675 H         1 UNK         0.0940 
     87 H87        26.5312   30.0759    1.5345 H         1 UNK         0.0940 
     88 H88        28.0637   27.4366    1.2785 H         1 UNK         0.0703 
     89 H89        26.3535   26.4577    0.2681 H         1 UNK         0.3081 
     90 H90        23.0996   27.3169   -0.4289 H         1 UNK         0.0719 
     91 H91        23.8770   28.1925   -2.6377 H         1 UNK         0.0809 
     92 H92        25.0316   26.8726   -2.7721 H         1 UNK         0.0809 
     93 H93        23.2991   26.5419   -2.7884 H         1 UNK         0.0809 
     94 H94        24.6365   25.0128   -1.2177 H         1 UNK         0.2990 
     95 H95        24.4924   23.3206    1.8691 H         1 UNK         0.0690 
     96 H96        23.2599   21.6130    0.5454 H         1 UNK         0.0788 
     97 H97        22.8175   22.8309   -0.6505 H         1 UNK         0.0788 
     98 H98        22.2099   22.9480    0.9922 H         1 UNK         0.0788 
     99 H99        26.2752   22.7853    0.7367 H         1 UNK         0.2993 
    100 H100       27.2224   21.5803   -1.7671 H         1 UNK         0.0949 
    101 H101       27.6478   24.4134   -2.8620 H         1 UNK         0.0767 
    102 H102       28.7071   23.0431   -3.1906 H         1 UNK         0.0767 
    103 H103       27.0442   23.0244   -3.7513 H         1 UNK         0.0767 
    104 H104       28.7154   22.0740   -0.2089 H         1 UNK         0.3013 
    105 H105       28.7737   26.9132   -0.8891 H         1 UNK         0.3121 
    106 H106       28.9746   28.8383   -2.9955 H         1 UNK         0.0774 
    107 H107       30.6340   26.3202   -2.4409 H         1 UNK         0.0815 
    108 H108       29.1609   26.4038   -3.4042 H         1 UNK         0.0815 
    109 H109       30.6191   27.2139   -3.9544 H         1 UNK         0.0815 
    110 H110       31.1249   28.0036   -0.2970 H         1 UNK         0.2987 
    111 H111       32.8226   30.4144   -0.8173 H         1 UNK         0.0949 
    112 H112       34.1036   28.2632   -0.5766 H         1 UNK         0.0806 
    113 H113       34.3994   29.3211    0.7949 H         1 UNK         0.0806 
    114 H114       33.3090   27.9544    0.9649 H         1 UNK         0.0806 
    115 H115       33.3028   31.6490    1.1656 H         1 UNK         0.3010 
    116 H116       30.9632   32.2876    2.7235 H         1 UNK         0.0829 
    117 H117       33.8990   33.1554    3.0291 H         1 UNK         0.0813 
    118 H118       32.5243   33.9116    3.8226 H         1 UNK         0.0813 
    119 H119       32.6759   33.9971    2.0772 H         1 UNK         0.0813 
    120 H120       30.7181   32.1155    4.9970 H         1 UNK         0.3038 
    121 H121       31.2267   29.5949    6.1054 H         1 UNK         0.0769 
    122 H122       29.2587   30.9949    6.6623 H         1 UNK         0.0811 
    123 H123       30.2934   32.1790    7.4645 H         1 UNK         0.0811 
    124 H124       30.1179   30.5605    8.1272 H         1 UNK         0.0811 
    125 H125       33.5056   32.0248    5.9411 H         1 UNK         0.3204 
    126 H126       35.0326   31.4610    8.3565 H         1 UNK         0.0748 
    127 H127       35.8045   32.8477    5.7280 H         1 UNK         0.0771 
    128 H128       35.2104   33.6550    7.1803 H         1 UNK         0.0771 
    129 H129       36.7635   32.8393    7.2015 H         1 UNK         0.0771 
    130 H130       34.4200   29.6615    5.5247 H         1 UNK         0.2980 
    131 H131       36.7686   28.4342    4.8389 H         1 UNK         0.0545 
    132 H132       37.6895   25.6896    6.9052 H         1 UNK         0.3459 
    133 H133       37.8165   26.3805    5.3090 H         1 UNK         0.3459 
    134 H134       35.3323   26.5502    4.0160 H         1 UNK         0.0616 
    135 H135       34.7350   28.1198    3.5665 H         1 UNK         0.0616 
    136 H136       32.2804   27.9920    3.1707 H         1 UNK         0.0634 
    137 H137       32.5909   26.2822    2.9823 H         1 UNK         0.0634 
@<TRIPOS>BOND
     1    1    2 1    
     2    1   72 1    
     3    1   73 1    
     4    1   74 1    
     5    2    3 2    
     6    2    4 am   BACKBONE|DICT|INTERRES
     7    4    5 1    
     8    4   75 1    
     9    5    6 1    
    10    5   35 1    
    11    5   76 1    
    12    6    7 1    
    13    6   77 1    
    14    6   78 1    
    15    7    8 1    
    16    8    9 1    
    17    8   79 1    
    18    8   80 1    
    19    9   10 ar   
    20    9   14 ar   
    21   10   11 ar   
    22   10   81 1    
    23   11   12 ar   
    24   11   71 1    
    25   12   13 ar   
    26   12   82 1    
    27   13   14 ar   
    28   13   15 1    
    29   14   83 1    
    30   15   16 1    
    31   15   84 1    
    32   15   85 1    
    33   16   17 1    
    34   17   18 1    
    35   17   86 1    
    36   17   87 1    
    37   18   19 1    
    38   18   37 1    
    39   18   88 1    
    40   19   20 am   BACKBONE|DICT|INTERRES
    41   19   89 1    
    42   20   21 2    
    43   20   22 1    
    44   22   23 1    
    45   22   24 1    
    46   22   90 1    
    47   23   91 1    
    48   23   92 1    
    49   23   93 1    
    50   24   25 am   BACKBONE|DICT|INTERRES
    51   24   94 1    
    52   25   26 2    
    53   25   27 1    
    54   27   28 1    
    55   27   29 1    
    56   27   95 1    
    57   28   96 1    
    58   28   97 1    
    59   28   98 1    
    60   29   30 am   BACKBONE|DICT|INTERRES
    61   29   99 1    
    62   30   31 2    
    63   30   32 1    
    64   32   33 1    
    65   32   34 1    
    66   32  100 1    
    67   33  101 1    
    68   33  102 1    
    69   33  103 1    
    70   34   35 am   BACKBONE|DICT|INTERRES
    71   34  104 1    
    72   35   36 2    
    73   37   38 2    
    74   37   39 am   BACKBONE|DICT|INTERRES
    75   39   40 1    
    76   39  105 1    
    77   40   41 1    
    78   40   42 1    
    79   40  106 1    
    80   41  107 1    
    81   41  108 1    
    82   41  109 1    
    83   42   43 2    
    84   42   44 am   BACKBONE|DICT|INTERRES
    85   44   45 1    
    86   44  110 1    
    87   45   46 1    
    88   45   47 1    
    89   45  111 1    
    90   46  112 1    
    91   46  113 1    
    92   46  114 1    
    93   47   48 2    
    94   47   49 am   BACKBONE|DICT|INTERRES
    95   49   50 1    
    96   49  115 1    
    97   50   51 1    
    98   50   52 1    
    99   50  116 1    
   100   51  117 1    
   101   51  118 1    
   102   51  119 1    
   103   52   53 2    
   104   52   54 am   BACKBONE|DICT|INTERRES
   105   54   55 1    
   106   54  120 1    
   107   55   56 1    
   108   55   57 1    
   109   55  121 1    
   110   56  122 1    
   111   56  123 1    
   112   56  124 1    
   113   57   58 2    
   114   57   59 am   BACKBONE|DICT|INTERRES
   115   59   60 1    
   116   59  125 1    
   117   60   61 1    
   118   60   62 1    
   119   60  126 1    
   120   61  127 1    
   121   61  128 1    
   122   61  129 1    
   123   62   63 2    
   124   62   64 am   BACKBONE|DICT|INTERRES
   125   64   65 1    
   126   64  130 1    
   127   65   66 1    
   128   65   69 1    
   129   65  131 1    
   130   66   67 am   BACKBONE|DICT|INTERRES
   131   66   68 2    
   132   67  132 1    
   133   67  133 1    
   134   69   70 1    
   135   69  134 1    
   136   69  135 1    
   137   70   71 1    
   138   71  136 1    
   139   71  137 1    
@<TRIPOS>SUBSTRUCTURE
     1 UNK         1 GROUP             0       ****    0 ROOT    
