@<TRIPOS>MOLECULE
3R136
137   139    1
SMALL
USER_CHARGES


@<TRIPOS>ATOM
      1 CA         33.7620   25.0680   -0.6540 C.3       0 UNK        -0.1979 
      2 C          32.2929   24.7468   -0.4262 C.2       0 UNK         0.4864 
      3 O          31.4288   25.5484   -0.7808 O.2       0 UNK        -0.5359 
      4 N          31.9982   23.5654    0.1341 N.am      1 UNK        -0.4318 
      5 CA         30.6579   23.0868    0.5195 C.3       1 UNK         0.0824 
      6 C6         30.7315   21.8047    1.3882 C.3       12 UNK        -0.0944 
      7 S7         31.8713   21.9569    2.8062 S.3       12 UNK        -0.2672 
      8 C8         30.7550   21.7847    4.2385 C.3       12 UNK         0.0333 
      9 C9         30.0278   23.0703    4.6258 C.ar      12 UNK        -0.0807 
     10 C10        30.7233   24.2779    4.7547 C.ar      12 UNK        -0.0894 
     11 C11        30.0763   25.4294    5.2145 C.ar      12 UNK        -0.0804 
     12 C12        28.7230   25.3671    5.5594 C.ar      12 UNK        -0.0824 
     13 C13        28.0112   24.1713    5.4253 C.ar      12 UNK        -0.0762 
     14 C14        28.6675   23.0300    4.9508 C.ar      12 UNK        -0.0782 
     15 C15        26.5486   24.0910    5.8424 C.3       12 UNK         0.0230 
     16 S16        25.4182   24.4747    4.4676 S.3       12 UNK        -0.2608 
     17 C17        25.2996   26.2964    4.5529 C.3       12 UNK        -0.0989 
     18 CA         26.1781   27.0060    3.4889 C.3       5 UNK         0.0716 
     19 N          25.8772   26.5911    2.1150 N.am      5 UNK        -0.4135 
     20 C          24.7720   26.8365    1.4004 C.2       4 UNK         0.5031 
     21 O          23.8161   27.4985    1.8092 O.2       4 UNK        -0.5229 
     22 CA         24.7341   26.2272   -0.0177 C.3       4 UNK         0.0329 
     23 CB         23.4026   26.4996   -0.7437 C.3       4 UNK        -0.2001 
     24 N          25.8373   26.6645   -0.8821 N.am      4 UNK        -0.4303 
     25 C          27.1150   26.2795   -0.7739 C.2       3 UNK         0.5044 
     26 O          27.5505   25.5972    0.1569 O.2       3 UNK        -0.5152 
     27 CA         28.0736   26.7298   -1.8866 C.3       3 UNK         0.0319 
     28 CB         28.9822   27.8685   -1.3943 C.3       3 UNK        -0.2001 
     29 N          28.8932   25.5906   -2.2996 N.am      3 UNK        -0.4354 
     30 C          28.4310   24.5590   -3.0265 C.2       2 UNK         0.4964 
     31 O          27.3462   24.5692   -3.6100 O.2       2 UNK        -0.5047 
     32 CA         29.2998   23.2869   -3.0929 C.3       2 UNK         0.0288 
     33 CB         30.1941   23.3051   -4.3431 C.3       2 UNK        -0.2113 
     34 N          30.1359   23.1204   -1.9034 N.am      2 UNK        -0.4145 
     35 C          29.6778   22.8837   -0.6644 C.2       1 UNK         0.5006 
     36 O          28.5212   22.5257   -0.4354 O.2       1 UNK        -0.5103 
     37 C          26.1560   28.5430    3.6167 C.2       5 UNK         0.5055 
     38 O          25.3271   29.1018    4.3396 O.2       5 UNK        -0.5220 
     39 N          27.0534   29.1896    2.8622 N.am      6 UNK        -0.4450 
     40 CA         27.2504   30.6385    2.8196 C.3       6 UNK         0.0367 
     41 CB         27.8781   30.9943    1.4549 C.3       6 UNK        -0.1929 
     42 C          28.0838   31.1352    4.0223 C.2       6 UNK         0.5070 
     43 O          28.0312   30.5483    5.1055 O.2       6 UNK        -0.5237 
     44 N          28.8466   32.2177    3.8231 N.am      7 UNK        -0.4739 
     45 CA         29.8546   32.6920    4.7725 C.3       7 UNK         0.0276 
     46 CB         30.3307   34.0893    4.3437 C.3       7 UNK        -0.1927 
     47 C          31.0425   31.7191    4.8177 C.2       7 UNK         0.5013 
     48 O          31.4153   31.1766    3.7741 O.2       7 UNK        -0.5193 
     49 N          31.6551   31.5579    5.9985 N.am      8 UNK        -0.4253 
     50 CA         32.7869   30.6506    6.2376 C.3       8 UNK         0.0242 
     51 CB         33.1682   30.6879    7.7259 C.3       8 UNK        -0.2000 
     52 C          34.0205   30.9251    5.3573 C.2       8 UNK         0.4948 
     53 O          34.7535   29.9903    5.0383 O.2       8 UNK        -0.5275 
     54 N          34.2010   32.1851    4.9383 N.am      9 UNK        -0.4246 
     55 CA         35.2134   32.6039    3.9669 C.3       9 UNK         0.0261 
     56 CB         35.2981   34.1392    3.9631 C.3       9 UNK        -0.1959 
     57 C          34.9616   32.0769    2.5392 C.2       9 UNK         0.5033 
     58 O          35.9146   32.0034    1.7618 O.2       9 UNK        -0.5390 
     59 N          33.7067   31.7351    2.2120 N.am      10 UNK        -0.4215 
     60 CA         33.3024   31.1828    0.9218 C.3       10 UNK         0.0240 
     61 CB         31.9585   31.7942    0.4852 C.3       10 UNK        -0.1982 
     62 C          33.2238   29.6522    0.9874 C.2       10 UNK         0.4970 
     63 O          33.8829   28.9920    0.1832 O.2       10 UNK        -0.4916 
     64 N          32.4260   29.1130    1.9226 N.am      11 UNK        -0.4279 
     65 CA         32.2199   27.6603    2.0627 C.3       11 UNK         0.1003 
     66 C          33.3552   26.8897    2.7943 C.2       11 UNK         0.5709 
     67 N          34.2824   27.5424    3.4824 N.am      11 UNK        -0.7358 
     68 O          33.4104   25.6658    2.7195 O.2       11 UNK        -0.4999 
     69 C69        30.8059   27.2866    2.5821 C.3       12 UNK        -0.0954 
     70 S70        30.3552   28.0124    4.1924 S.3       12 UNK        -0.2268 
     71 C71        30.8533   26.7279    5.3833 C.3       12 UNK         0.0203 
     72 H72        33.9876   26.0729   -0.2982 H         1 UNK         0.0888 
     73 H73        34.4147   24.3717   -0.1276 H         1 UNK         0.0888 
     74 H74        33.9962   25.0238   -1.7171 H         1 UNK         0.0888 
     75 H75        32.7548   22.9566    0.4131 H         1 UNK         0.3017 
     76 H76        30.2150   23.8740    1.1344 H         1 UNK         0.0873 
     77 H77        31.0648   20.9572    0.7860 H         1 UNK         0.0745 
     78 H78        29.7386   21.5403    1.7572 H         1 UNK         0.0745 
     79 H79        30.0499   20.9738    4.0494 H         1 UNK         0.0705 
     80 H80        31.3522   21.4692    5.0949 H         1 UNK         0.0705 
     81 H81        31.7775   24.3158    4.5149 H         1 UNK         0.1334 
     82 H82        28.2276   26.2511    5.9372 H         1 UNK         0.1417 
     83 H83        28.1227   22.0990    4.8690 H         1 UNK         0.1562 
     84 H84        26.3541   24.7496    6.6901 H         1 UNK         0.0748 
     85 H85        26.3262   23.0833    6.1968 H         1 UNK         0.0748 
     86 H86        25.5705   26.6315    5.5555 H         1 UNK         0.0940 
     87 H87        24.2512   26.5709    4.4224 H         1 UNK         0.0940 
     88 H88        27.2116   26.7067    3.6645 H         1 UNK         0.0703 
     89 H89        26.6092   26.0663    1.6389 H         1 UNK         0.3081 
     90 H90        24.8186   25.1454    0.1090 H         1 UNK         0.0719 
     91 H91        23.2489   27.5652   -0.9191 H         1 UNK         0.0809 
     92 H92        23.3631   25.9904   -1.7069 H         1 UNK         0.0809 
     93 H93        22.5559   26.1401   -0.1571 H         1 UNK         0.0809 
     94 H94        25.5804   27.2567   -1.6589 H         1 UNK         0.2990 
     95 H95        27.5002   27.0850   -2.7456 H         1 UNK         0.0690 
     96 H96        29.6696   28.1924   -2.1758 H         1 UNK         0.0788 
     97 H97        29.5788   27.5648   -0.5334 H         1 UNK         0.0788 
     98 H98        28.3951   28.7378   -1.0955 H         1 UNK         0.0788 
     99 H99        29.7843   25.4935   -1.8187 H         1 UNK         0.2993 
    100 H100       28.6265   22.4295   -3.1585 H         1 UNK         0.0949 
    101 H101       30.7674   22.3823   -4.4345 H         1 UNK         0.0767 
    102 H102       29.5943   23.4039   -5.2491 H         1 UNK         0.0767 
    103 H103       30.8975   24.1387   -4.3248 H         1 UNK         0.0767 
    104 H104       31.1011   23.4025   -1.9897 H         1 UNK         0.3013 
    105 H105       27.7102   28.6379    2.3313 H         1 UNK         0.3121 
    106 H106       26.2747   31.1249    2.8824 H         1 UNK         0.0774 
    107 H107       27.9155   32.0724    1.2959 H         1 UNK         0.0815 
    108 H108       28.8940   30.6066    1.3655 H         1 UNK         0.0815 
    109 H109       27.2930   30.5807    0.6331 H         1 UNK         0.0815 
    110 H110       28.8619   32.6339    2.9041 H         1 UNK         0.2987 
    111 H111       29.4014   32.7560    5.7644 H         1 UNK         0.0949 
    112 H112       30.8032   34.0721    3.3603 H         1 UNK         0.0806 
    113 H113       29.5018   34.7963    4.3050 H         1 UNK         0.0806 
    114 H114       31.0609   34.4884    5.0490 H         1 UNK         0.0806 
    115 H115       31.2968   32.0521    6.8033 H         1 UNK         0.3010 
    116 H116       32.4456   29.6410    5.9982 H         1 UNK         0.0829 
    117 H117       32.3331   30.3855    8.3580 H         1 UNK         0.0813 
    118 H118       33.9925   30.0041    7.9344 H         1 UNK         0.0813 
    119 H119       33.4845   31.6841    8.0377 H         1 UNK         0.0813 
    120 H120       33.5558   32.8917    5.2599 H         1 UNK         0.3038 
    121 H121       36.1774   32.2083    4.2944 H         1 UNK         0.0769 
    122 H122       34.3558   34.5954    3.6568 H         1 UNK         0.0811 
    123 H123       36.0672   34.4856    3.2711 H         1 UNK         0.0811 
    124 H124       35.5556   34.5261    4.9493 H         1 UNK         0.0811 
    125 H125       32.9834   31.7548    2.9264 H         1 UNK         0.3204 
    126 H126       34.0400   31.4447    0.1599 H         1 UNK         0.0748 
    127 H127       31.6407   31.3891   -0.4764 H         1 UNK         0.0771 
    128 H128       31.1612   31.5951    1.2007 H         1 UNK         0.0771 
    129 H129       32.0378   32.8753    0.3707 H         1 UNK         0.0771 
    130 H130       31.9360   29.7121    2.5812 H         1 UNK         0.2980 
    131 H131       32.2469   27.2606    1.0498 H         1 UNK         0.0545 
    132 H132       35.0093   27.0123    3.9342 H         1 UNK         0.3459 
    133 H133       34.2458   28.5437    3.6207 H         1 UNK         0.3459 
    134 H134       30.6775   26.2036    2.6106 H         1 UNK         0.0616 
    135 H135       30.0649   27.6372    1.8633 H         1 UNK         0.0616 
    136 H136       31.9266   26.5546    5.3014 H         1 UNK         0.0634 
    137 H137       30.6879   27.1113    6.3910 H         1 UNK         0.0634 
@<TRIPOS>BOND
     1    1    2 1    
     2    1   72 1    
     3    1   73 1    
     4    1   74 1    
     5    2    3 2    
     6    2    4 am   BACKBONE|DICT|INTERRES
     7    4    5 1    
     8    4   75 1    
     9    5    6 1    
    10    5   35 1    
    11    5   76 1    
    12    6    7 1    
    13    6   77 1    
    14    6   78 1    
    15    7    8 1    
    16    8    9 1    
    17    8   79 1    
    18    8   80 1    
    19    9   10 ar   
    20    9   14 ar   
    21   10   11 ar   
    22   10   81 1    
    23   11   12 ar   
    24   11   71 1    
    25   12   13 ar   
    26   12   82 1    
    27   13   14 ar   
    28   13   15 1    
    29   14   83 1    
    30   15   16 1    
    31   15   84 1    
    32   15   85 1    
    33   16   17 1    
    34   17   18 1    
    35   17   86 1    
    36   17   87 1    
    37   18   19 1    
    38   18   37 1    
    39   18   88 1    
    40   19   20 am   BACKBONE|DICT|INTERRES
    41   19   89 1    
    42   20   21 2    
    43   20   22 1    
    44   22   23 1    
    45   22   24 1    
    46   22   90 1    
    47   23   91 1    
    48   23   92 1    
    49   23   93 1    
    50   24   25 am   BACKBONE|DICT|INTERRES
    51   24   94 1    
    52   25   26 2    
    53   25   27 1    
    54   27   28 1    
    55   27   29 1    
    56   27   95 1    
    57   28   96 1    
    58   28   97 1    
    59   28   98 1    
    60   29   30 am   BACKBONE|DICT|INTERRES
    61   29   99 1    
    62   30   31 2    
    63   30   32 1    
    64   32   33 1    
    65   32   34 1    
    66   32  100 1    
    67   33  101 1    
    68   33  102 1    
    69   33  103 1    
    70   34   35 am   BACKBONE|DICT|INTERRES
    71   34  104 1    
    72   35   36 2    
    73   37   38 2    
    74   37   39 am   BACKBONE|DICT|INTERRES
    75   39   40 1    
    76   39  105 1    
    77   40   41 1    
    78   40   42 1    
    79   40  106 1    
    80   41  107 1    
    81   41  108 1    
    82   41  109 1    
    83   42   43 2    
    84   42   44 am   BACKBONE|DICT|INTERRES
    85   44   45 1    
    86   44  110 1    
    87   45   46 1    
    88   45   47 1    
    89   45  111 1    
    90   46  112 1    
    91   46  113 1    
    92   46  114 1    
    93   47   48 2    
    94   47   49 am   BACKBONE|DICT|INTERRES
    95   49   50 1    
    96   49  115 1    
    97   50   51 1    
    98   50   52 1    
    99   50  116 1    
   100   51  117 1    
   101   51  118 1    
   102   51  119 1    
   103   52   53 2    
   104   52   54 am   BACKBONE|DICT|INTERRES
   105   54   55 1    
   106   54  120 1    
   107   55   56 1    
   108   55   57 1    
   109   55  121 1    
   110   56  122 1    
   111   56  123 1    
   112   56  124 1    
   113   57   58 2    
   114   57   59 am   BACKBONE|DICT|INTERRES
   115   59   60 1    
   116   59  125 1    
   117   60   61 1    
   118   60   62 1    
   119   60  126 1    
   120   61  127 1    
   121   61  128 1    
   122   61  129 1    
   123   62   63 2    
   124   62   64 am   BACKBONE|DICT|INTERRES
   125   64   65 1    
   126   64  130 1    
   127   65   66 1    
   128   65   69 1    
   129   65  131 1    
   130   66   67 am   BACKBONE|DICT|INTERRES
   131   66   68 2    
   132   67  132 1    
   133   67  133 1    
   134   69   70 1    
   135   69  134 1    
   136   69  135 1    
   137   70   71 1    
   138   71  136 1    
   139   71  137 1    
@<TRIPOS>SUBSTRUCTURE
     1 UNK         1 GROUP             0       ****    0 ROOT    
