@<TRIPOS>MOLECULE
3R136
137   139    1
SMALL
USER_CHARGES


@<TRIPOS>ATOM
      1 CA         30.2187   23.7620    4.0093 C.3       0 UNK        -0.1979 
      2 C          29.4360   22.7937    3.1426 C.2       0 UNK         0.4864 
      3 O          28.3832   22.3079    3.5578 O.2       0 UNK        -0.5359 
      4 N          29.9576   22.4965    1.9465 N.am      1 UNK        -0.4318 
      5 CA         29.4128   21.4840    1.0331 C.3       1 UNK         0.0824 
      6 C6         30.4720   20.9830    0.0221 C.3       12 UNK        -0.0944 
      7 S7         31.9545   20.3272    0.8703 S.3       12 UNK        -0.2672 
      8 C8         33.2934   21.3966    0.2523 C.3       12 UNK         0.0333 
      9 C9         33.1818   22.8381    0.7345 C.ar      12 UNK        -0.0807 
     10 C10        33.7204   23.2259    1.9676 C.ar      12 UNK        -0.0894 
     11 C11        33.6906   24.5682    2.3680 C.ar      12 UNK        -0.0804 
     12 C12        33.0809   25.5162    1.5402 C.ar      12 UNK        -0.0824 
     13 C13        32.5364   25.1382    0.3093 C.ar      12 UNK        -0.0762 
     14 C14        32.5992   23.8025   -0.0911 C.ar      12 UNK        -0.0782 
     15 C15        31.9362   26.1790   -0.6204 C.3       12 UNK         0.0230 
     16 S16        30.1587   25.8997   -0.8966 S.3       12 UNK        -0.2608 
     17 C17        29.7246   27.4756   -1.7176 C.3       12 UNK        -0.0989 
     18 CA         29.0933   28.5859   -0.8278 C.3       5 UNK         0.0716 
     19 N          27.6314   28.5261   -0.7794 N.am      5 UNK        -0.4135 
     20 C          26.8590   29.5826   -0.4811 C.2       4 UNK         0.5031 
     21 O          27.2977   30.7094   -0.2444 O.2       4 UNK        -0.5229 
     22 CA         25.3434   29.3380   -0.4106 C.3       4 UNK         0.0329 
     23 CB         24.7259   29.3345   -1.8182 C.3       4 UNK        -0.2001 
     24 N          25.0021   28.0942    0.2812 N.am      4 UNK        -0.4303 
     25 C          25.2275   27.8667    1.5828 C.2       3 UNK         0.5044 
     26 O          25.7345   28.6877    2.3482 O.2       3 UNK        -0.5152 
     27 CA         24.8571   26.4683    2.1075 C.3       3 UNK         0.0319 
     28 CB         23.3664   26.4071    2.4764 C.3       3 UNK        -0.2001 
     29 N          25.1822   25.3746    1.1813 N.am      3 UNK        -0.4354 
     30 C          26.4176   25.1015    0.7411 C.2       2 UNK         0.4964 
     31 O          27.4004   25.8015    0.9883 O.2       2 UNK        -0.5047 
     32 CA         26.5997   23.8566   -0.1297 C.3       2 UNK         0.0288 
     33 CB         26.6284   24.2225   -1.6234 C.3       2 UNK        -0.2113 
     34 N          27.8655   23.2467    0.2639 N.am      2 UNK        -0.4145 
     35 C          28.1116   21.9328    0.3309 C.2       1 UNK         0.5006 
     36 O          27.3408   21.0754   -0.1055 O.2       1 UNK        -0.5103 
     37 C          29.6875   28.6979    0.5902 C.2       5 UNK         0.5055 
     38 O          30.6302   29.4637    0.7828 O.2       5 UNK        -0.5220 
     39 N          29.1097   27.9677    1.5571 N.am      6 UNK        -0.4450 
     40 CA         29.4959   27.9765    2.9675 C.3       6 UNK         0.0367 
     41 CB         28.6396   26.9709    3.7503 C.3       6 UNK        -0.1929 
     42 C          29.3840   29.3675    3.6000 C.2       6 UNK         0.5070 
     43 O          30.3104   29.7842    4.2934 O.2       6 UNK        -0.5237 
     44 N          28.2782   30.0691    3.3141 N.am      7 UNK        -0.4739 
     45 CA         28.0351   31.4475    3.7419 C.3       7 UNK         0.0276 
     46 CB         26.5905   31.8407    3.3950 C.3       7 UNK        -0.1927 
     47 C          29.0304   32.4522    3.1368 C.2       7 UNK         0.5013 
     48 O          29.4572   33.3698    3.8378 O.2       7 UNK        -0.5193 
     49 N          29.3916   32.2558    1.8607 N.am      8 UNK        -0.4253 
     50 CA         30.3693   33.0776    1.1440 C.3       8 UNK         0.0242 
     51 CB         30.2413   32.8314   -0.3683 C.3       8 UNK        -0.2000 
     52 C          31.8102   32.8289    1.6217 C.2       8 UNK         0.4948 
     53 O          32.5516   33.7885    1.8361 O.2       8 UNK        -0.5275 
     54 N          32.1784   31.5507    1.7812 N.am      9 UNK        -0.4246 
     55 CA         33.5040   31.1062    2.2191 C.3       9 UNK         0.0261 
     56 CB         33.6771   29.6237    1.8452 C.3       9 UNK        -0.1959 
     57 C          33.7597   31.2955    3.7243 C.2       9 UNK         0.5033 
     58 O          34.9230   31.2973    4.1292 O.2       9 UNK        -0.5390 
     59 N          32.6835   31.4049    4.5182 N.am      10 UNK        -0.4215 
     60 CA         32.6474   31.3546    5.9850 C.3       10 UNK         0.0240 
     61 CB         33.4076   32.5403    6.6178 C.3       10 UNK        -0.1982 
     62 C          33.1009   29.9764    6.5073 C.2       10 UNK         0.4970 
     63 O          33.9017   29.8963    7.4409 O.2       10 UNK        -0.4916 
     64 N          32.5895   28.9167    5.8669 N.am      11 UNK        -0.4279 
     65 CA         32.8559   27.5141    6.2075 C.3       11 UNK         0.1003 
     66 C          32.1645   27.1087    7.5387 C.2       11 UNK         0.5709 
     67 N          32.8426   26.3528    8.3914 N.am      11 UNK        -0.7358 
     68 O          31.0096   27.4497    7.7882 O.2       11 UNK        -0.4999 
     69 C69        32.4588   26.5783    5.0344 C.3       12 UNK        -0.0954 
     70 S70        33.3051   24.9612    5.1078 S.3       12 UNK        -0.2268 
     71 C71        34.3924   25.0057    3.6498 C.3       12 UNK         0.0203 
     72 H72        30.9653   23.2161    4.5846 H         1 UNK         0.0888 
     73 H73        30.7278   24.5117    3.4036 H         1 UNK         0.0888 
     74 H74        29.5616   24.2729    4.7120 H         1 UNK         0.0888 
     75 H75        30.8399   22.9059    1.6685 H         1 UNK         0.3017 
     76 H76        29.1316   20.6241    1.6458 H         1 UNK         0.0873 
     77 H77        30.0594   20.1760   -0.5865 H         1 UNK         0.0745 
     78 H78        30.7472   21.7720   -0.6772 H         1 UNK         0.0745 
     79 H79        33.3087   21.3575   -0.8382 H         1 UNK         0.0705 
     80 H80        34.2474   20.9800    0.5788 H         1 UNK         0.0705 
     81 H81        34.1979   22.4883    2.5984 H         1 UNK         0.1334 
     82 H82        33.0652   26.5555    1.8352 H         1 UNK         0.1417 
     83 H83        32.2069   23.5228   -1.0594 H         1 UNK         0.1562 
     84 H84        32.4577   26.1507   -1.5782 H         1 UNK         0.0748 
     85 H85        32.0901   27.1804   -0.2158 H         1 UNK         0.0748 
     86 H86        30.6288   27.8721   -2.1828 H         1 UNK         0.0940 
     87 H87        29.0647   27.2485   -2.5564 H         1 UNK         0.0940 
     88 H88        29.3378   29.5286   -1.3236 H         1 UNK         0.0703 
     89 H89        27.2065   27.6189   -0.9018 H         1 UNK         0.3081 
     90 H90        24.9028   30.1643    0.1518 H         1 UNK         0.0719 
     91 H91        25.1011   28.5103   -2.4262 H         1 UNK         0.0809 
     92 H92        23.6397   29.2520   -1.7743 H         1 UNK         0.0809 
     93 H93        24.9568   30.2606   -2.3466 H         1 UNK         0.0809 
     94 H94        24.5806   27.3593   -0.2679 H         1 UNK         0.2990 
     95 H95        25.4354   26.3024    3.0187 H         1 UNK         0.0690 
     96 H96        23.1054   27.2013    3.1776 H         1 UNK         0.0788 
     97 H97        23.1145   25.4606    2.9553 H         1 UNK         0.0788 
     98 H98        22.7263   26.5221    1.6008 H         1 UNK         0.0788 
     99 H99        24.4228   24.7609    0.9220 H         1 UNK         0.2993 
    100 H100       25.7776   23.1641    0.0647 H         1 UNK         0.0949 
    101 H101       25.6893   24.6831   -1.9322 H         1 UNK         0.0767 
    102 H102       27.4303   24.9253   -1.8520 H         1 UNK         0.0767 
    103 H103       26.7755   23.3375   -2.2427 H         1 UNK         0.0767 
    104 H104       28.5322   23.8968    0.6625 H         1 UNK         0.3013 
    105 H105       28.3861   27.3006    1.2935 H         1 UNK         0.3121 
    106 H106       30.5393   27.6621    3.0162 H         1 UNK         0.0774 
    107 H107       28.9806   26.8845    4.7826 H         1 UNK         0.0815 
    108 H108       27.5918   27.2692    3.7795 H         1 UNK         0.0815 
    109 H109       28.6837   25.9807    3.3016 H         1 UNK         0.0815 
    110 H110       27.5450   29.6213    2.7724 H         1 UNK         0.2987 
    111 H111       28.1505   31.4838    4.8274 H         1 UNK         0.0949 
    112 H112       26.3748   32.8615    3.7133 H         1 UNK         0.0806 
    113 H113       26.4040   31.7846    2.3215 H         1 UNK         0.0806 
    114 H114       25.8727   31.1872    3.8914 H         1 UNK         0.0806 
    115 H115       28.9833   31.4794    1.3559 H         1 UNK         0.3010 
    116 H116       30.1332   34.1269    1.3346 H         1 UNK         0.0829 
    117 H117       30.9333   33.4639   -0.9258 H         1 UNK         0.0813 
    118 H118       30.4605   31.7966   -0.6325 H         1 UNK         0.0813 
    119 H119       29.2356   33.0589   -0.7227 H         1 UNK         0.0813 
    120 H120       31.5197   30.8164    1.5193 H         1 UNK         0.3038 
    121 H121       34.2564   31.6868    1.6813 H         1 UNK         0.0769 
    122 H122       34.6657   29.2587    2.1269 H         1 UNK         0.0811 
    123 H123       33.5675   29.4692    0.7716 H         1 UNK         0.0811 
    124 H124       32.9404   28.9972    2.3495 H         1 UNK         0.0811 
    125 H125       31.7766   31.3144    4.0741 H         1 UNK         0.3204 
    126 H126       31.5972   31.4541    6.2642 H         1 UNK         0.0748 
    127 H127       33.2559   32.5661    7.6975 H         1 UNK         0.0771 
    128 H128       34.4822   32.4776    6.4447 H         1 UNK         0.0771 
    129 H129       33.0580   33.4923    6.2182 H         1 UNK         0.0771 
    130 H130       31.8608   29.0894    5.1808 H         1 UNK         0.2980 
    131 H131       33.9361   27.4340    6.3467 H         1 UNK         0.0545 
    132 H132       32.4040   26.0711    9.2538 H         1 UNK         0.3459 
    133 H133       33.7803   26.0480    8.1819 H         1 UNK         0.3459 
    134 H134       31.3814   26.4113    5.0144 H         1 UNK         0.0616 
    135 H135       32.7049   27.0521    4.0847 H         1 UNK         0.0616 
    136 H136       34.8139   26.0056    3.5341 H         1 UNK         0.0634 
    137 H137       35.2414   24.3471    3.8389 H         1 UNK         0.0634 
@<TRIPOS>BOND
     1    1    2 1    
     2    1   72 1    
     3    1   73 1    
     4    1   74 1    
     5    2    3 2    
     6    2    4 am   BACKBONE|DICT|INTERRES
     7    4    5 1    
     8    4   75 1    
     9    5    6 1    
    10    5   35 1    
    11    5   76 1    
    12    6    7 1    
    13    6   77 1    
    14    6   78 1    
    15    7    8 1    
    16    8    9 1    
    17    8   79 1    
    18    8   80 1    
    19    9   10 ar   
    20    9   14 ar   
    21   10   11 ar   
    22   10   81 1    
    23   11   12 ar   
    24   11   71 1    
    25   12   13 ar   
    26   12   82 1    
    27   13   14 ar   
    28   13   15 1    
    29   14   83 1    
    30   15   16 1    
    31   15   84 1    
    32   15   85 1    
    33   16   17 1    
    34   17   18 1    
    35   17   86 1    
    36   17   87 1    
    37   18   19 1    
    38   18   37 1    
    39   18   88 1    
    40   19   20 am   BACKBONE|DICT|INTERRES
    41   19   89 1    
    42   20   21 2    
    43   20   22 1    
    44   22   23 1    
    45   22   24 1    
    46   22   90 1    
    47   23   91 1    
    48   23   92 1    
    49   23   93 1    
    50   24   25 am   BACKBONE|DICT|INTERRES
    51   24   94 1    
    52   25   26 2    
    53   25   27 1    
    54   27   28 1    
    55   27   29 1    
    56   27   95 1    
    57   28   96 1    
    58   28   97 1    
    59   28   98 1    
    60   29   30 am   BACKBONE|DICT|INTERRES
    61   29   99 1    
    62   30   31 2    
    63   30   32 1    
    64   32   33 1    
    65   32   34 1    
    66   32  100 1    
    67   33  101 1    
    68   33  102 1    
    69   33  103 1    
    70   34   35 am   BACKBONE|DICT|INTERRES
    71   34  104 1    
    72   35   36 2    
    73   37   38 2    
    74   37   39 am   BACKBONE|DICT|INTERRES
    75   39   40 1    
    76   39  105 1    
    77   40   41 1    
    78   40   42 1    
    79   40  106 1    
    80   41  107 1    
    81   41  108 1    
    82   41  109 1    
    83   42   43 2    
    84   42   44 am   BACKBONE|DICT|INTERRES
    85   44   45 1    
    86   44  110 1    
    87   45   46 1    
    88   45   47 1    
    89   45  111 1    
    90   46  112 1    
    91   46  113 1    
    92   46  114 1    
    93   47   48 2    
    94   47   49 am   BACKBONE|DICT|INTERRES
    95   49   50 1    
    96   49  115 1    
    97   50   51 1    
    98   50   52 1    
    99   50  116 1    
   100   51  117 1    
   101   51  118 1    
   102   51  119 1    
   103   52   53 2    
   104   52   54 am   BACKBONE|DICT|INTERRES
   105   54   55 1    
   106   54  120 1    
   107   55   56 1    
   108   55   57 1    
   109   55  121 1    
   110   56  122 1    
   111   56  123 1    
   112   56  124 1    
   113   57   58 2    
   114   57   59 am   BACKBONE|DICT|INTERRES
   115   59   60 1    
   116   59  125 1    
   117   60   61 1    
   118   60   62 1    
   119   60  126 1    
   120   61  127 1    
   121   61  128 1    
   122   61  129 1    
   123   62   63 2    
   124   62   64 am   BACKBONE|DICT|INTERRES
   125   64   65 1    
   126   64  130 1    
   127   65   66 1    
   128   65   69 1    
   129   65  131 1    
   130   66   67 am   BACKBONE|DICT|INTERRES
   131   66   68 2    
   132   67  132 1    
   133   67  133 1    
   134   69   70 1    
   135   69  134 1    
   136   69  135 1    
   137   70   71 1    
   138   71  136 1    
   139   71  137 1    
@<TRIPOS>SUBSTRUCTURE
     1 UNK         1 GROUP             0       ****    0 ROOT    
