@<TRIPOS>MOLECULE
3R136
137   139    1
SMALL
USER_CHARGES


@<TRIPOS>ATOM
      1 CA         33.5412   23.6057   -1.4401 C.3       0 UNK        -0.1979 
      2 C          32.1968   23.8733   -0.7798 C.2       0 UNK         0.4864 
      3 O          31.6783   24.9838   -0.8847 O.2       0 UNK        -0.5359 
      4 N          31.6389   22.8678   -0.0937 N.am      1 UNK        -0.4318 
      5 CA         30.3313   22.9254    0.5662 C.3       1 UNK         0.0824 
      6 C6         30.1884   21.7711    1.5912 C.3       12 UNK        -0.0944 
      7 S7         28.9695   22.1204    2.9038 S.3       12 UNK        -0.2672 
      8 C8         30.0418   22.5655    4.3087 C.3       12 UNK         0.0333 
      9 C9         30.4590   24.0273    4.2505 C.ar      12 UNK        -0.0807 
     10 C10        31.5691   24.4212    3.4974 C.ar      12 UNK        -0.0894 
     11 C11        31.9384   25.7673    3.4128 C.ar      12 UNK        -0.0804 
     12 C12        31.1896   26.7211    4.1156 C.ar      12 UNK        -0.0824 
     13 C13        30.0935   26.3367    4.8948 C.ar      12 UNK        -0.0762 
     14 C14        29.7298   24.9896    4.9535 C.ar      12 UNK        -0.0782 
     15 C15        29.3143   27.3726    5.6928 C.3       12 UNK         0.0230 
     16 S16        27.6490   27.6762    5.0237 S.3       12 UNK        -0.2608 
     17 C17        28.0165   28.3690    3.3752 C.3       12 UNK        -0.0989 
     18 CA         27.3970   27.4986    2.2489 C.3       5 UNK         0.0716 
     19 N          25.9349   27.3768    2.3012 N.am      5 UNK        -0.4135 
     20 C          25.0210   28.3592    2.2789 C.2       4 UNK         0.5031 
     21 O          25.3080   29.5580    2.2318 O.2       4 UNK        -0.5229 
     22 CA         23.5378   27.9281    2.3097 C.3       4 UNK         0.0329 
     23 CB         22.5869   29.0127    1.7580 C.3       4 UNK        -0.2001 
     24 N          23.2960   26.6324    1.6591 N.am      4 UNK        -0.4303 
     25 C          23.5223   26.3238    0.3738 C.2       3 UNK         0.5044 
     26 O          23.8846   27.1280   -0.4873 O.2       3 UNK        -0.5152 
     27 CA         23.3479   24.8429   -0.0043 C.3       3 UNK         0.0319 
     28 CB         22.1372   24.6536   -0.9326 C.3       3 UNK        -0.2001 
     29 N          24.5500   24.3144   -0.6547 N.am      3 UNK        -0.4354 
     30 C          25.7672   24.2692   -0.0947 C.2       2 UNK         0.4964 
     31 O          26.0004   24.6047    1.0717 O.2       2 UNK        -0.5047 
     32 CA         26.9082   23.7700   -0.9913 C.3       2 UNK         0.0288 
     33 CB         27.1539   24.7183   -2.1823 C.3       2 UNK        -0.2113 
     34 N          28.1190   23.6580   -0.1848 N.am      2 UNK        -0.4145 
     35 C          29.1895   22.9122   -0.4714 C.2       1 UNK         0.5006 
     36 O          29.2875   22.2095   -1.4822 O.2       1 UNK        -0.5103 
     37 C          27.8718   27.9209    0.8468 C.2       5 UNK         0.5055 
     38 O          28.5454   27.1309    0.1870 O.2       5 UNK        -0.5220 
     39 N          27.4902   29.1362    0.4200 N.am      6 UNK        -0.4450 
     40 CA         27.7360   29.7511   -0.8933 C.3       6 UNK         0.0367 
     41 CB         26.8209   29.1024   -1.9526 C.3       6 UNK        -0.1929 
     42 C          29.2232   29.7481   -1.3073 C.2       6 UNK         0.5070 
     43 O          29.5487   29.4357   -2.4547 O.2       6 UNK        -0.5237 
     44 N          30.0997   30.0740   -0.3515 N.am      7 UNK        -0.4739 
     45 CA         31.5528   29.9774   -0.4716 C.3       7 UNK         0.0276 
     46 CB         31.9906   28.5527   -0.0769 C.3       7 UNK        -0.1927 
     47 C          32.2196   31.0847    0.3603 C.2       7 UNK         0.5013 
     48 O          31.6156   32.1427    0.5593 O.2       7 UNK        -0.5193 
     49 N          33.4523   30.8408    0.8266 N.am      8 UNK        -0.4253 
     50 CA         34.2824   31.7580    1.6155 C.3       8 UNK         0.0242 
     51 CB         35.7441   31.2757    1.5504 C.3       8 UNK        -0.2000 
     52 C          33.7826   31.9154    3.0663 C.2       8 UNK         0.4948 
     53 O          34.5006   31.5751    4.0103 O.2       8 UNK        -0.5275 
     54 N          32.5492   32.4179    3.2137 N.am      9 UNK        -0.4246 
     55 CA         31.7999   32.5850    4.4612 C.3       9 UNK         0.0261 
     56 CB         32.4125   33.7169    5.3190 C.3       9 UNK        -0.1959 
     57 C          31.6539   31.2349    5.1872 C.2       9 UNK         0.5033 
     58 O          31.0283   30.3297    4.6357 O.2       9 UNK        -0.5390 
     59 N          32.2463   31.1151    6.3815 N.am      10 UNK        -0.4215 
     60 CA         32.2915   29.8890    7.1798 C.3       10 UNK         0.0240 
     61 CB         32.5753   30.2667    8.6440 C.3       10 UNK        -0.1982 
     62 C          33.3208   28.8536    6.6827 C.2       10 UNK         0.4970 
     63 O          33.2890   27.7228    7.1687 O.2       10 UNK        -0.4916 
     64 N          34.2267   29.2495    5.7743 N.am      11 UNK        -0.4279 
     65 CA         35.3506   28.4454    5.2573 C.3       11 UNK         0.1003 
     66 C          36.4311   28.0786    6.3222 C.2       11 UNK         0.5709 
     67 N          36.5055   28.7710    7.4533 N.am      11 UNK        -0.7358 
     68 O          37.2416   27.1787    6.1125 O.2       11 UNK        -0.4999 
     69 C69        34.8936   27.2225    4.4097 C.3       12 UNK        -0.0954 
     70 S70        33.9496   27.7184    2.9339 S.3       12 UNK        -0.2268 
     71 C71        33.1186   26.1469    2.5165 C.3       12 UNK         0.0203 
     72 H72        33.8922   22.5904   -1.2560 H         1 UNK         0.0888 
     73 H73        33.4639   23.7478   -2.5177 H         1 UNK         0.0888 
     74 H74        34.2905   24.2982   -1.0575 H         1 UNK         0.0888 
     75 H75        32.0947   21.9669   -0.0821 H         1 UNK         0.3017 
     76 H76        30.2866   23.8783    1.0985 H         1 UNK         0.0873 
     77 H77        29.9129   20.8371    1.0969 H         1 UNK         0.0745 
     78 H78        31.1493   21.5677    2.0658 H         1 UNK         0.0745 
     79 H79        29.4953   22.3735    5.2333 H         1 UNK         0.0705 
     80 H80        30.9187   21.9174    4.3424 H         1 UNK         0.0705 
     81 H81        32.1351   23.6774    2.9537 H         1 UNK         0.1334 
     82 H82        31.4550   27.7677    4.0623 H         1 UNK         0.1417 
     83 H83        28.8737   24.6934    5.5447 H         1 UNK         0.1562 
     84 H84        29.8528   28.3176    5.7304 H         1 UNK         0.0748 
     85 H85        29.2236   27.0347    6.7260 H         1 UNK         0.0748 
     86 H86        29.0973   28.4472    3.2456 H         1 UNK         0.0940 
     87 H87        27.6460   29.3941    3.3422 H         1 UNK         0.0940 
     88 H88        27.7704   26.4828    2.3946 H         1 UNK         0.0703 
     89 H89        25.6027   26.4212    2.2550 H         1 UNK         0.3081 
     90 H90        23.2938   27.7869    3.3636 H         1 UNK         0.0719 
     91 H91        22.8203   29.2697    0.7244 H         1 UNK         0.0809 
     92 H92        21.5474   28.6873    1.7971 H         1 UNK         0.0809 
     93 H93        22.6596   29.9303    2.3430 H         1 UNK         0.0809 
     94 H94        23.0016   25.8884    2.2776 H         1 UNK         0.2990 
     95 H95        23.1792   24.2582    0.9025 H         1 UNK         0.0690 
     96 H96        21.9762   23.6013   -1.1677 H         1 UNK         0.0788 
     97 H97        22.2608   25.1938   -1.8724 H         1 UNK         0.0788 
     98 H98        21.2246   25.0231   -0.4627 H         1 UNK         0.0788 
     99 H99        24.4523   24.0442   -1.6225 H         1 UNK         0.2993 
    100 H100       26.6348   22.7789   -1.3597 H         1 UNK         0.0949 
    101 H101       26.2641   24.8241   -2.8035 H         1 UNK         0.0767 
    102 H102       27.4375   25.7146   -1.8432 H         1 UNK         0.0767 
    103 H103       27.9516   24.3495   -2.8272 H         1 UNK         0.0767 
    104 H104       28.0716   24.1617    0.6931 H         1 UNK         0.3013 
    105 H105       26.8759   29.6546    1.0428 H         1 UNK         0.3121 
    106 H106       27.4461   30.7989   -0.8030 H         1 UNK         0.0774 
    107 H107       26.8944   29.6234   -2.9078 H         1 UNK         0.0815 
    108 H108       27.0873   28.0602   -2.1278 H         1 UNK         0.0815 
    109 H109       25.7750   29.1313   -1.6462 H         1 UNK         0.0815 
    110 H110       29.7549   30.3953    0.5425 H         1 UNK         0.2987 
    111 H111       31.8437   30.1587   -1.5086 H         1 UNK         0.0949 
    112 H112       31.4744   27.8017   -0.6762 H         1 UNK         0.0806 
    113 H113       33.0582   28.3912   -0.2275 H         1 UNK         0.0806 
    114 H114       31.7576   28.3469    0.9681 H         1 UNK         0.0806 
    115 H115       33.8480   29.9275    0.6570 H         1 UNK         0.3010 
    116 H116       34.2371   32.7463    1.1527 H         1 UNK         0.0829 
    117 H117       36.1052   31.2359    0.5226 H         1 UNK         0.0813 
    118 H118       36.4034   31.9514    2.0971 H         1 UNK         0.0813 
    119 H119       35.8608   30.2828    1.9873 H         1 UNK         0.0813 
    120 H120       32.0267   32.5825    2.3563 H         1 UNK         0.3038 
    121 H121       30.7909   32.8905    4.1803 H         1 UNK         0.0769 
    122 H122       33.4416   33.5087    5.6142 H         1 UNK         0.0811 
    123 H123       31.8299   33.8863    6.2256 H         1 UNK         0.0811 
    124 H124       32.4184   34.6579    4.7687 H         1 UNK         0.0811 
    125 H125       32.7547   31.9105    6.7400 H         1 UNK         0.3204 
    126 H126       31.3101   29.4146    7.1418 H         1 UNK         0.0748 
    127 H127       33.5449   30.7532    8.7568 H         1 UNK         0.0771 
    128 H128       31.8130   30.9413    9.0346 H         1 UNK         0.0771 
    129 H129       32.5783   29.3827    9.2834 H         1 UNK         0.0771 
    130 H130       34.1733   30.1886    5.3919 H         1 UNK         0.2980 
    131 H131       35.8797   29.1149    4.5784 H         1 UNK         0.0545 
    132 H132       37.2141   28.5352    8.1299 H         1 UNK         0.3459 
    133 H133       35.8634   29.5249    7.6342 H         1 UNK         0.3459 
    134 H134       35.7527   26.6514    4.0543 H         1 UNK         0.0616 
    135 H135       34.2979   26.5348    5.0114 H         1 UNK         0.0616 
    136 H136       32.7564   26.2086    1.4903 H         1 UNK         0.0634 
    137 H137       33.8660   25.3520    2.5267 H         1 UNK         0.0634 
@<TRIPOS>BOND
     1    1    2 1    
     2    1   72 1    
     3    1   73 1    
     4    1   74 1    
     5    2    3 2    
     6    2    4 am   BACKBONE|DICT|INTERRES
     7    4    5 1    
     8    4   75 1    
     9    5    6 1    
    10    5   35 1    
    11    5   76 1    
    12    6    7 1    
    13    6   77 1    
    14    6   78 1    
    15    7    8 1    
    16    8    9 1    
    17    8   79 1    
    18    8   80 1    
    19    9   10 ar   
    20    9   14 ar   
    21   10   11 ar   
    22   10   81 1    
    23   11   12 ar   
    24   11   71 1    
    25   12   13 ar   
    26   12   82 1    
    27   13   14 ar   
    28   13   15 1    
    29   14   83 1    
    30   15   16 1    
    31   15   84 1    
    32   15   85 1    
    33   16   17 1    
    34   17   18 1    
    35   17   86 1    
    36   17   87 1    
    37   18   19 1    
    38   18   37 1    
    39   18   88 1    
    40   19   20 am   BACKBONE|DICT|INTERRES
    41   19   89 1    
    42   20   21 2    
    43   20   22 1    
    44   22   23 1    
    45   22   24 1    
    46   22   90 1    
    47   23   91 1    
    48   23   92 1    
    49   23   93 1    
    50   24   25 am   BACKBONE|DICT|INTERRES
    51   24   94 1    
    52   25   26 2    
    53   25   27 1    
    54   27   28 1    
    55   27   29 1    
    56   27   95 1    
    57   28   96 1    
    58   28   97 1    
    59   28   98 1    
    60   29   30 am   BACKBONE|DICT|INTERRES
    61   29   99 1    
    62   30   31 2    
    63   30   32 1    
    64   32   33 1    
    65   32   34 1    
    66   32  100 1    
    67   33  101 1    
    68   33  102 1    
    69   33  103 1    
    70   34   35 am   BACKBONE|DICT|INTERRES
    71   34  104 1    
    72   35   36 2    
    73   37   38 2    
    74   37   39 am   BACKBONE|DICT|INTERRES
    75   39   40 1    
    76   39  105 1    
    77   40   41 1    
    78   40   42 1    
    79   40  106 1    
    80   41  107 1    
    81   41  108 1    
    82   41  109 1    
    83   42   43 2    
    84   42   44 am   BACKBONE|DICT|INTERRES
    85   44   45 1    
    86   44  110 1    
    87   45   46 1    
    88   45   47 1    
    89   45  111 1    
    90   46  112 1    
    91   46  113 1    
    92   46  114 1    
    93   47   48 2    
    94   47   49 am   BACKBONE|DICT|INTERRES
    95   49   50 1    
    96   49  115 1    
    97   50   51 1    
    98   50   52 1    
    99   50  116 1    
   100   51  117 1    
   101   51  118 1    
   102   51  119 1    
   103   52   53 2    
   104   52   54 am   BACKBONE|DICT|INTERRES
   105   54   55 1    
   106   54  120 1    
   107   55   56 1    
   108   55   57 1    
   109   55  121 1    
   110   56  122 1    
   111   56  123 1    
   112   56  124 1    
   113   57   58 2    
   114   57   59 am   BACKBONE|DICT|INTERRES
   115   59   60 1    
   116   59  125 1    
   117   60   61 1    
   118   60   62 1    
   119   60  126 1    
   120   61  127 1    
   121   61  128 1    
   122   61  129 1    
   123   62   63 2    
   124   62   64 am   BACKBONE|DICT|INTERRES
   125   64   65 1    
   126   64  130 1    
   127   65   66 1    
   128   65   69 1    
   129   65  131 1    
   130   66   67 am   BACKBONE|DICT|INTERRES
   131   66   68 2    
   132   67  132 1    
   133   67  133 1    
   134   69   70 1    
   135   69  134 1    
   136   69  135 1    
   137   70   71 1    
   138   71  136 1    
   139   71  137 1    
@<TRIPOS>SUBSTRUCTURE
     1 UNK         1 GROUP             0       ****    0 ROOT    
