@<TRIPOS>MOLECULE
3R136
137   139    1
SMALL
USER_CHARGES


@<TRIPOS>ATOM
      1 CA         31.1996   21.3978    2.6666 C.3       0 UNK        -0.1979 
      2 C          30.5246   21.9465    1.4205 C.2       0 UNK         0.4864 
      3 O          29.9708   21.1781    0.6313 O.2       0 UNK        -0.5359 
      4 N          30.5606   23.2727    1.2374 N.am      1 UNK        -0.4318 
      5 CA         29.9408   23.9806    0.1128 C.3       1 UNK         0.0824 
      6 C6         30.5991   25.3610   -0.1634 C.3       12 UNK        -0.0944 
      7 S7         32.4134   25.2796   -0.3502 S.3       12 UNK        -0.2672 
      8 C8         32.9788   26.2801    1.0641 C.3       12 UNK         0.0333 
      9 C9         32.6393   25.6239    2.3942 C.ar      12 UNK        -0.0807 
     10 C10        33.4345   24.5883    2.8894 C.ar      12 UNK        -0.0894 
     11 C11        33.1249   23.9803    4.1085 C.ar      12 UNK        -0.0804 
     12 C12        32.0115   24.4182    4.8320 C.ar      12 UNK        -0.0824 
     13 C13        31.2059   25.4570    4.3533 C.ar      12 UNK        -0.0762 
     14 C14        31.5299   26.0530    3.1276 C.ar      12 UNK        -0.0782 
     15 C15        29.9998   25.8891    5.1904 C.3       12 UNK         0.0230 
     16 S16        29.3639   27.5693    4.8562 S.3       12 UNK        -0.2608 
     17 C17        28.1934   27.2703    3.4841 C.3       12 UNK        -0.0989 
     18 CA         28.1143   28.4409    2.4649 C.3       5 UNK         0.0716 
     19 N          27.6354   27.9639    1.1556 N.am      5 UNK        -0.4135 
     20 C          27.4805   28.6968    0.0420 C.2       4 UNK         0.5031 
     21 O          27.8014   29.8809   -0.0424 O.2       4 UNK        -0.5229 
     22 CA         26.7751   28.0449   -1.1602 C.3       4 UNK         0.0329 
     23 CB         27.7930   27.4730   -2.1563 C.3       4 UNK        -0.2001 
     24 N          25.8017   27.0071   -0.8107 N.am      4 UNK        -0.4303 
     25 C          24.7339   27.1512   -0.0153 C.2       3 UNK         0.5044 
     26 O          24.4496   28.2048    0.5549 O.2       3 UNK        -0.5152 
     27 CA         23.8532   25.9078    0.2193 C.3       3 UNK         0.0319 
     28 CB         22.8435   25.7125   -0.9285 C.3       3 UNK        -0.2001 
     29 N          24.6128   24.6787    0.5017 N.am      3 UNK        -0.4354 
     30 C          25.4282   23.9902   -0.3107 C.2       2 UNK         0.4964 
     31 O          25.6008   24.2448   -1.5050 O.2       2 UNK        -0.5047 
     32 CA         26.2428   22.8616    0.3442 C.3       2 UNK         0.0288 
     33 CB         25.7828   21.4888   -0.1725 C.3       2 UNK        -0.2113 
     34 N          27.6869   23.0037    0.1223 N.am      2 UNK        -0.4145 
     35 C          28.4221   24.1007    0.3609 C.2       1 UNK         0.5006 
     36 O          27.9565   25.1521    0.8067 O.2       1 UNK        -0.5103 
     37 C          27.3131   29.6427    3.0388 C.2       5 UNK         0.5055 
     38 O          27.8128   30.3337    3.9268 O.2       5 UNK        -0.5220 
     39 N          26.1009   29.9080    2.5238 N.am      6 UNK        -0.4450 
     40 CA         25.3360   31.1247    2.8134 C.3       6 UNK         0.0367 
     41 CB         23.9075   30.9668    2.2690 C.3       6 UNK        -0.1929 
     42 C          25.9811   32.4115    2.2543 C.2       6 UNK         0.5070 
     43 O          25.6914   33.4898    2.7741 O.2       6 UNK        -0.5237 
     44 N          26.8210   32.2899    1.2157 N.am      7 UNK        -0.4739 
     45 CA         27.5248   33.3997    0.5667 C.3       7 UNK         0.0276 
     46 CB         27.0313   33.5293   -0.8841 C.3       7 UNK        -0.1927 
     47 C          29.0507   33.2159    0.6004 C.2       7 UNK         0.5013 
     48 O          29.7667   34.1943    0.8200 O.2       7 UNK        -0.5193 
     49 N          29.5272   31.9853    0.3698 N.am      8 UNK        -0.4253 
     50 CA         30.9419   31.6100    0.3943 C.3       8 UNK         0.0242 
     51 CB         31.1070   30.2474   -0.3030 C.3       8 UNK        -0.2000 
     52 C          31.4898   31.5380    1.8282 C.2       8 UNK         0.4948 
     53 O          30.7297   31.3054    2.7699 O.2       8 UNK        -0.5275 
     54 N          32.8122   31.6963    1.9630 N.am      9 UNK        -0.4246 
     55 CA         33.5337   31.4921    3.2201 C.3       9 UNK         0.0261 
     56 CB         34.9488   32.0806    3.0972 C.3       9 UNK        -0.1959 
     57 C          33.5988   29.9966    3.5724 C.2       9 UNK         0.5033 
     58 O          33.8212   29.1734    2.6807 O.2       9 UNK        -0.5390 
     59 N          33.4244   29.6799    4.8605 N.am      10 UNK        -0.4215 
     60 CA         33.5093   28.3186    5.3895 C.3       10 UNK         0.0240 
     61 CB         32.8422   28.2693    6.7739 C.3       10 UNK        -0.1982 
     62 C          34.9611   27.8216    5.4662 C.2       10 UNK         0.4970 
     63 O          35.8844   28.6306    5.5884 O.2       10 UNK        -0.4916 
     64 N          35.1260   26.4948    5.4363 N.am      11 UNK        -0.4279 
     65 CA         36.4174   25.8031    5.5750 C.3       11 UNK         0.1003 
     66 C          37.0885   25.9044    6.9787 C.2       11 UNK         0.5709 
     67 N          36.3937   26.3424    8.0224 N.am      11 UNK        -0.7358 
     68 O          38.2683   25.5897    7.1177 O.2       11 UNK        -0.4999 
     69 C69        36.3310   24.3351    5.0792 C.3       12 UNK        -0.0954 
     70 S70        35.0877   23.3328    5.9698 S.3       12 UNK        -0.2268 
     71 C71        33.9687   22.8251    4.6283 C.3       12 UNK         0.0203 
     72 H72        32.2793   21.3613    2.5253 H         1 UNK         0.0888 
     73 H73        30.9792   22.0188    3.5338 H         1 UNK         0.0888 
     74 H74        30.8491   20.3885    2.8811 H         1 UNK         0.0888 
     75 H75        31.0418   23.8588    1.9067 H         1 UNK         0.3017 
     76 H76        30.0792   23.3789   -0.7884 H         1 UNK         0.0873 
     77 H77        30.2105   25.7726   -1.0939 H         1 UNK         0.0745 
     78 H78        30.3435   26.0881    0.6075 H         1 UNK         0.0745 
     79 H79        34.0586   26.4189    0.9928 H         1 UNK         0.0705 
     80 H80        32.5423   27.2785    1.0015 H         1 UNK         0.0705 
     81 H81        34.2879   24.2505    2.3171 H         1 UNK         0.1334 
     82 H82        31.7706   23.9418    5.7732 H         1 UNK         0.1417 
     83 H83        30.9308   26.8631    2.7388 H         1 UNK         0.1562 
     84 H84        30.2765   25.8571    6.2455 H         1 UNK         0.0748 
     85 H85        29.1959   25.1626    5.0643 H         1 UNK         0.0748 
     86 H86        27.2090   27.0376    3.8948 H         1 UNK         0.0940 
     87 H87        28.5207   26.3622    2.9785 H         1 UNK         0.0940 
     88 H88        29.1279   28.8077    2.2894 H         1 UNK         0.0703 
     89 H89        27.4256   26.9707    1.0927 H         1 UNK         0.3081 
     90 H90        26.2245   28.8416   -1.6643 H         1 UNK         0.0719 
     91 H91        28.2383   26.5529   -1.7831 H         1 UNK         0.0809 
     92 H92        27.3208   27.2458   -3.1122 H         1 UNK         0.0809 
     93 H93        28.6003   28.1802   -2.3535 H         1 UNK         0.0809 
     94 H94        25.9439   26.0861   -1.2169 H         1 UNK         0.2990 
     95 H95        23.2768   26.1064    1.1244 H         1 UNK         0.0690 
     96 H96        22.1835   24.8668   -0.7358 H         1 UNK         0.0788 
     97 H97        23.3355   25.5426   -1.8864 H         1 UNK         0.0788 
     98 H98        22.2136   26.5957   -1.0432 H         1 UNK         0.0788 
     99 H99        24.5768   24.3862    1.4688 H         1 UNK         0.2993 
    100 H100       26.0835   22.8920    1.4239 H         1 UNK         0.0949 
    101 H101       25.9588   21.3831   -1.2440 H         1 UNK         0.0767 
    102 H102       26.3051   20.6774    0.3352 H         1 UNK         0.0767 
    103 H103       24.7152   21.3438   -0.0011 H         1 UNK         0.0767 
    104 H104       28.1841   22.1693   -0.1647 H         1 UNK         0.3013 
    105 H105       25.7166   29.2921    1.8142 H         1 UNK         0.3121 
    106 H106       25.2758   31.2340    3.8983 H         1 UNK         0.0774 
    107 H107       23.9003   30.8636    1.1831 H         1 UNK         0.0815 
    108 H108       23.2963   31.8353    2.5180 H         1 UNK         0.0815 
    109 H109       23.4145   30.0913    2.6919 H         1 UNK         0.0815 
    110 H110       27.0238   31.3597    0.8602 H         1 UNK         0.2987 
    111 H111       27.3088   34.3388    1.0809 H         1 UNK         0.0949 
    112 H112       27.2063   32.6154   -1.4537 H         1 UNK         0.0806 
    113 H113       25.9635   33.7458   -0.9195 H         1 UNK         0.0806 
    114 H114       27.5442   34.3415   -1.4010 H         1 UNK         0.0806 
    115 H115       28.8693   31.2244    0.2086 H         1 UNK         0.3010 
    116 H116       31.5061   32.3623   -0.1613 H         1 UNK         0.0829 
    117 H117       30.7165   30.2704   -1.3206 H         1 UNK         0.0813 
    118 H118       32.1578   29.9613   -0.3648 H         1 UNK         0.0813 
    119 H119       30.5883   29.4537    0.2362 H         1 UNK         0.0813 
    120 H120       33.3762   31.8344    1.1371 H         1 UNK         0.3038 
    121 H121       33.0034   32.0254    4.0124 H         1 UNK         0.0769 
    122 H122       35.5237   31.5888    2.3113 H         1 UNK         0.0811 
    123 H123       35.5033   31.9588    4.0288 H         1 UNK         0.0811 
    124 H124       34.9186   33.1476    2.8756 H         1 UNK         0.0811 
    125 H125       33.2883   30.4196    5.5336 H         1 UNK         0.3204 
    126 H126       32.9580   27.6629    4.7173 H         1 UNK         0.0748 
    127 H127       32.8347   27.2529    7.1697 H         1 UNK         0.0771 
    128 H128       33.3611   28.9000    7.4969 H         1 UNK         0.0771 
    129 H129       31.8039   28.5985    6.7234 H         1 UNK         0.0771 
    130 H130       34.3198   25.8935    5.3411 H         1 UNK         0.2980 
    131 H131       37.1072   26.3138    4.9004 H         1 UNK         0.0545 
    132 H132       36.8431   26.4071    8.9220 H         1 UNK         0.3459 
    133 H133       35.4256   26.5980    7.9208 H         1 UNK         0.3459 
    134 H134       37.2991   23.8395    5.1711 H         1 UNK         0.0616 
    135 H135       36.1078   24.3274    4.0122 H         1 UNK         0.0616 
    136 H136       33.3110   22.0403    5.0045 H         1 UNK         0.0634 
    137 H137       34.5495   22.3724    3.8230 H         1 UNK         0.0634 
@<TRIPOS>BOND
     1    1    2 1    
     2    1   72 1    
     3    1   73 1    
     4    1   74 1    
     5    2    3 2    
     6    2    4 am   BACKBONE|DICT|INTERRES
     7    4    5 1    
     8    4   75 1    
     9    5    6 1    
    10    5   35 1    
    11    5   76 1    
    12    6    7 1    
    13    6   77 1    
    14    6   78 1    
    15    7    8 1    
    16    8    9 1    
    17    8   79 1    
    18    8   80 1    
    19    9   10 ar   
    20    9   14 ar   
    21   10   11 ar   
    22   10   81 1    
    23   11   12 ar   
    24   11   71 1    
    25   12   13 ar   
    26   12   82 1    
    27   13   14 ar   
    28   13   15 1    
    29   14   83 1    
    30   15   16 1    
    31   15   84 1    
    32   15   85 1    
    33   16   17 1    
    34   17   18 1    
    35   17   86 1    
    36   17   87 1    
    37   18   19 1    
    38   18   37 1    
    39   18   88 1    
    40   19   20 am   BACKBONE|DICT|INTERRES
    41   19   89 1    
    42   20   21 2    
    43   20   22 1    
    44   22   23 1    
    45   22   24 1    
    46   22   90 1    
    47   23   91 1    
    48   23   92 1    
    49   23   93 1    
    50   24   25 am   BACKBONE|DICT|INTERRES
    51   24   94 1    
    52   25   26 2    
    53   25   27 1    
    54   27   28 1    
    55   27   29 1    
    56   27   95 1    
    57   28   96 1    
    58   28   97 1    
    59   28   98 1    
    60   29   30 am   BACKBONE|DICT|INTERRES
    61   29   99 1    
    62   30   31 2    
    63   30   32 1    
    64   32   33 1    
    65   32   34 1    
    66   32  100 1    
    67   33  101 1    
    68   33  102 1    
    69   33  103 1    
    70   34   35 am   BACKBONE|DICT|INTERRES
    71   34  104 1    
    72   35   36 2    
    73   37   38 2    
    74   37   39 am   BACKBONE|DICT|INTERRES
    75   39   40 1    
    76   39  105 1    
    77   40   41 1    
    78   40   42 1    
    79   40  106 1    
    80   41  107 1    
    81   41  108 1    
    82   41  109 1    
    83   42   43 2    
    84   42   44 am   BACKBONE|DICT|INTERRES
    85   44   45 1    
    86   44  110 1    
    87   45   46 1    
    88   45   47 1    
    89   45  111 1    
    90   46  112 1    
    91   46  113 1    
    92   46  114 1    
    93   47   48 2    
    94   47   49 am   BACKBONE|DICT|INTERRES
    95   49   50 1    
    96   49  115 1    
    97   50   51 1    
    98   50   52 1    
    99   50  116 1    
   100   51  117 1    
   101   51  118 1    
   102   51  119 1    
   103   52   53 2    
   104   52   54 am   BACKBONE|DICT|INTERRES
   105   54   55 1    
   106   54  120 1    
   107   55   56 1    
   108   55   57 1    
   109   55  121 1    
   110   56  122 1    
   111   56  123 1    
   112   56  124 1    
   113   57   58 2    
   114   57   59 am   BACKBONE|DICT|INTERRES
   115   59   60 1    
   116   59  125 1    
   117   60   61 1    
   118   60   62 1    
   119   60  126 1    
   120   61  127 1    
   121   61  128 1    
   122   61  129 1    
   123   62   63 2    
   124   62   64 am   BACKBONE|DICT|INTERRES
   125   64   65 1    
   126   64  130 1    
   127   65   66 1    
   128   65   69 1    
   129   65  131 1    
   130   66   67 am   BACKBONE|DICT|INTERRES
   131   66   68 2    
   132   67  132 1    
   133   67  133 1    
   134   69   70 1    
   135   69  134 1    
   136   69  135 1    
   137   70   71 1    
   138   71  136 1    
   139   71  137 1    
@<TRIPOS>SUBSTRUCTURE
     1 UNK         1 GROUP             0       ****    0 ROOT    
