@<TRIPOS>MOLECULE
3R136
137   139    1
SMALL
USER_CHARGES


@<TRIPOS>ATOM
      1 CA         27.5770   21.0410    4.2177 C.3       0 UNK        -0.1979 
      2 C          27.5584   21.1193    2.6990 C.2       0 UNK         0.4864 
      3 O          26.5634   20.7404    2.0789 O.2       0 UNK        -0.5359 
      4 N          28.6426   21.6179    2.0901 N.am      1 UNK        -0.4318 
      5 CA         28.8376   21.7549    0.6410 C.3       1 UNK         0.0824 
      6 C6         30.3412   21.8602    0.2825 C.3       12 UNK        -0.0944 
      7 S7         31.3336   20.3808    0.7157 S.3       12 UNK        -0.2672 
      8 C8         31.9249   20.6204    2.4356 C.3       12 UNK         0.0333 
      9 C9         32.1372   22.0744    2.8378 C.ar      12 UNK        -0.0807 
     10 C10        32.9755   22.9074    2.0885 C.ar      12 UNK        -0.0894 
     11 C11        33.0682   24.2696    2.3856 C.ar      12 UNK        -0.0804 
     12 C12        32.3475   24.7867    3.4667 C.ar      12 UNK        -0.0824 
     13 C13        31.5529   23.9536    4.2582 C.ar      12 UNK        -0.0762 
     14 C14        31.4611   22.5953    3.9456 C.ar      12 UNK        -0.0782 
     15 C15        30.7742   24.5310    5.4330 C.3       12 UNK         0.0230 
     16 S16        28.9640   24.3741    5.2427 S.3       12 UNK        -0.2608 
     17 C17        28.6592   24.8984    3.5203 C.3       12 UNK        -0.0989 
     18 CA         29.0725   26.3542    3.1960 C.3       5 UNK         0.0716 
     19 N          29.1968   26.5352    1.7521 N.am      5 UNK        -0.4135 
     20 C          30.0740   27.3428    1.1438 C.2       4 UNK         0.5031 
     21 O          30.9444   27.9894    1.7295 O.2       4 UNK        -0.5229 
     22 CA         29.9556   27.4540   -0.3879 C.3       4 UNK         0.0329 
     23 CB         30.9321   26.4903   -1.0804 C.3       4 UNK        -0.2001 
     24 N          28.5985   27.1981   -0.8823 N.am      4 UNK        -0.4303 
     25 C          27.5517   28.0061   -0.6608 C.2       3 UNK         0.5044 
     26 O          27.6226   29.0525   -0.0196 O.2       3 UNK        -0.5152 
     27 CA         26.1843   27.5574   -1.2027 C.3       3 UNK         0.0319 
     28 CB         25.9867   28.0662   -2.6392 C.3       3 UNK        -0.2001 
     29 N          25.9560   26.1102   -1.1645 N.am      3 UNK        -0.4354 
     30 C          26.0328   25.3218   -0.0822 C.2       2 UNK         0.4964 
     31 O          26.3681   25.7251    1.0341 O.2       2 UNK        -0.5047 
     32 CA         25.6867   23.8299   -0.2753 C.3       2 UNK         0.0288 
     33 CB         25.3830   23.4373   -1.7400 C.3       2 UNK        -0.2113 
     34 N          26.7025   22.9229    0.2714 N.am      2 UNK        -0.4145 
     35 C          28.0240   22.9328    0.0452 C.2       1 UNK         0.5006 
     36 O          28.5959   23.8125   -0.6041 O.2       1 UNK        -0.5103 
     37 C          28.0961   27.3846    3.7930 C.2       5 UNK         0.5055 
     38 O          28.3627   27.9143    4.8725 O.2       5 UNK        -0.5220 
     39 N          26.9884   27.6541    3.0845 N.am      6 UNK        -0.4450 
     40 CA         25.9564   28.6137    3.4847 C.3       6 UNK         0.0367 
     41 CB         24.7290   28.4562    2.5745 C.3       6 UNK        -0.1929 
     42 C          26.4399   30.0749    3.4876 C.2       6 UNK         0.5070 
     43 O          25.9851   30.8520    4.3282 O.2       6 UNK        -0.5237 
     44 N          27.3374   30.4298    2.5565 N.am      7 UNK        -0.4739 
     45 CA         27.9708   31.7463    2.4684 C.3       7 UNK         0.0276 
     46 CB         28.8018   31.8311    1.1772 C.3       7 UNK        -0.1927 
     47 C          28.8571   32.0317    3.6909 C.2       7 UNK         0.5013 
     48 O          29.7583   31.2430    3.9861 O.2       7 UNK        -0.5193 
     49 N          28.6216   33.1797    4.3426 N.am      8 UNK        -0.4253 
     50 CA         29.3174   33.6365    5.5542 C.3       8 UNK         0.0242 
     51 CB         28.6630   34.9373    6.0487 C.3       8 UNK        -0.2000 
     52 C          30.8386   33.8259    5.3982 C.2       8 UNK         0.4948 
     53 O          31.5495   33.8295    6.4038 O.2       8 UNK        -0.5275 
     54 N          31.3115   33.9583    4.1510 N.am      9 UNK        -0.4246 
     55 CA         32.7271   33.9803    3.7829 C.3       9 UNK         0.0261 
     56 CB         32.8545   34.3894    2.3058 C.3       9 UNK        -0.1959 
     57 C          33.4568   32.6451    4.0334 C.2       9 UNK         0.5033 
     58 O          34.6731   32.6810    4.2192 O.2       9 UNK        -0.5390 
     59 N          32.7139   31.5223    4.0378 N.am      10 UNK        -0.4215 
     60 CA         33.1597   30.1334    4.2127 C.3       10 UNK         0.0240 
     61 CB         33.7324   29.9050    5.6266 C.3       10 UNK        -0.1982 
     62 C          34.1384   29.6877    3.1106 C.2       10 UNK         0.4970 
     63 O          35.3400   29.9433    3.2075 O.2       10 UNK        -0.4916 
     64 N          33.5969   29.0265    2.0809 N.am      11 UNK        -0.4279 
     65 CA         34.3180   28.5293    0.8948 C.3       11 UNK         0.1003 
     66 C          34.7693   29.6389   -0.1022 C.2       11 UNK         0.5709 
     67 N          34.2811   30.8688    0.0104 N.am      11 UNK        -0.7358 
     68 O          35.5474   29.3764   -1.0165 O.2       11 UNK        -0.4999 
     69 C69        35.4597   27.5098    1.2090 C.3       12 UNK        -0.0954 
     70 S70        35.0348   26.2329    2.4423 S.3       12 UNK        -0.2268 
     71 C71        33.8811   25.1956    1.4933 C.3       12 UNK         0.0203 
     72 H72        28.5573   21.2769    4.6283 H         1 UNK         0.0888 
     73 H73        26.8562   21.7425    4.6371 H         1 UNK         0.0888 
     74 H74        27.3076   20.0373    4.5455 H         1 UNK         0.0888 
     75 H75        29.4243   21.9248    2.6493 H         1 UNK         0.3017 
     76 H76        28.4530   20.8502    0.1648 H         1 UNK         0.0873 
     77 H77        30.4506   21.9739   -0.7979 H         1 UNK         0.0745 
     78 H78        30.7682   22.7692    0.7025 H         1 UNK         0.0745 
     79 H79        32.8636   20.0791    2.5602 H         1 UNK         0.0705 
     80 H80        31.2100   20.1394    3.1051 H         1 UNK         0.0705 
     81 H81        33.5024   22.5034    1.2346 H         1 UNK         0.1334 
     82 H82        32.4046   25.8446    3.6848 H         1 UNK         0.1417 
     83 H83        30.8388   21.9546    4.5547 H         1 UNK         0.1562 
     84 H84        31.0221   25.5826    5.5852 H         1 UNK         0.0748 
     85 H85        31.0759   24.0170    6.3466 H         1 UNK         0.0748 
     86 H86        27.6057   24.7286    3.2882 H         1 UNK         0.0940 
     87 H87        29.2071   24.2160    2.8712 H         1 UNK         0.0940 
     88 H88        30.0484   26.5470    3.6419 H         1 UNK         0.0703 
     89 H89        28.5010   26.0691    1.1827 H         1 UNK         0.3081 
     90 H90        30.2265   28.4751   -0.6654 H         1 UNK         0.0719 
     91 H91        30.7653   25.4558   -0.7770 H         1 UNK         0.0809 
     92 H92        30.8392   26.5407   -2.1653 H         1 UNK         0.0809 
     93 H93        31.9640   26.7397   -0.8389 H         1 UNK         0.0809 
     94 H94        28.4467   26.3299   -1.3785 H         1 UNK         0.2990 
     95 H95        25.4187   28.0180   -0.5777 H         1 UNK         0.0690 
     96 H96        24.9798   27.8563   -3.0007 H         1 UNK         0.0788 
     97 H97        26.6953   27.6093   -3.3313 H         1 UNK         0.0788 
     98 H98        26.1285   29.1467   -2.6934 H         1 UNK         0.0788 
     99 H99        25.6898   25.6773   -2.0371 H         1 UNK         0.2993 
    100 H100       24.7809   23.6603    0.3087 H         1 UNK         0.0949 
    101 H101       25.1067   22.3849   -1.8101 H         1 UNK         0.0767 
    102 H102       24.5446   24.0066   -2.1438 H         1 UNK         0.0767 
    103 H103       26.2443   23.5914   -2.3919 H         1 UNK         0.0767 
    104 H104       26.3575   22.1739    0.8681 H         1 UNK         0.3013 
    105 H105       26.8094   27.1179    2.2396 H         1 UNK         0.3121 
    106 H106       25.6558   28.3648    4.5047 H         1 UNK         0.0774 
    107 H107       24.3659   27.4282    2.5647 H         1 UNK         0.0815 
    108 H108       23.9086   29.0880    2.9174 H         1 UNK         0.0815 
    109 H109       24.9527   28.7459    1.5485 H         1 UNK         0.0815 
    110 H110       27.6145   29.7475    1.8576 H         1 UNK         0.2987 
    111 H111       27.1778   32.4954    2.4167 H         1 UNK         0.0949 
    112 H112       28.1727   31.7174    0.2942 H         1 UNK         0.0806 
    113 H113       29.3040   32.7956    1.0928 H         1 UNK         0.0806 
    114 H114       29.5695   31.0563    1.1412 H         1 UNK         0.0806 
    115 H115       27.8657   33.7670    4.0193 H         1 UNK         0.3010 
    116 H116       29.1722   32.8689    6.3173 H         1 UNK         0.0829 
    117 H117       28.7488   35.7377    5.3127 H         1 UNK         0.0813 
    118 H118       29.1355   35.2882    6.9675 H         1 UNK         0.0813 
    119 H119       27.6050   34.7924    6.2682 H         1 UNK         0.0813 
    120 H120       30.6445   33.9691    3.3939 H         1 UNK         0.3038 
    121 H121       33.2186   34.7411    4.3934 H         1 UNK         0.0769 
    122 H122       32.4227   35.3744    2.1273 H         1 UNK         0.0811 
    123 H123       32.3583   33.6784    1.6440 H         1 UNK         0.0811 
    124 H124       33.9019   34.4384    2.0040 H         1 UNK         0.0811 
    125 H125       31.7102   31.6191    3.9051 H         1 UNK         0.3204 
    126 H126       32.2619   29.5176    4.1283 H         1 UNK         0.0748 
    127 H127       34.6317   30.4952    5.8054 H         1 UNK         0.0771 
    128 H128       33.0035   30.1655    6.3942 H         1 UNK         0.0771 
    129 H129       33.9988   28.8573    5.7714 H         1 UNK         0.0771 
    130 H130       32.5986   28.8268    2.0810 H         1 UNK         0.2980 
    131 H131       33.5589   27.9873    0.3349 H         1 UNK         0.0545 
    132 H132       34.5701   31.5761   -0.6465 H         1 UNK         0.3459 
    133 H133       33.6362   31.0940    0.7493 H         1 UNK         0.3459 
    134 H134       36.3412   28.0360    1.5785 H         1 UNK         0.0616 
    135 H135       35.7767   27.0037    0.2955 H         1 UNK         0.0616 
    136 H136       34.4432   24.6335    0.7460 H         1 UNK         0.0634 
    137 H137       33.1798   25.8274    0.9515 H         1 UNK         0.0634 
@<TRIPOS>BOND
     1    1    2 1    
     2    1   72 1    
     3    1   73 1    
     4    1   74 1    
     5    2    3 2    
     6    2    4 am   BACKBONE|DICT|INTERRES
     7    4    5 1    
     8    4   75 1    
     9    5    6 1    
    10    5   35 1    
    11    5   76 1    
    12    6    7 1    
    13    6   77 1    
    14    6   78 1    
    15    7    8 1    
    16    8    9 1    
    17    8   79 1    
    18    8   80 1    
    19    9   10 ar   
    20    9   14 ar   
    21   10   11 ar   
    22   10   81 1    
    23   11   12 ar   
    24   11   71 1    
    25   12   13 ar   
    26   12   82 1    
    27   13   14 ar   
    28   13   15 1    
    29   14   83 1    
    30   15   16 1    
    31   15   84 1    
    32   15   85 1    
    33   16   17 1    
    34   17   18 1    
    35   17   86 1    
    36   17   87 1    
    37   18   19 1    
    38   18   37 1    
    39   18   88 1    
    40   19   20 am   BACKBONE|DICT|INTERRES
    41   19   89 1    
    42   20   21 2    
    43   20   22 1    
    44   22   23 1    
    45   22   24 1    
    46   22   90 1    
    47   23   91 1    
    48   23   92 1    
    49   23   93 1    
    50   24   25 am   BACKBONE|DICT|INTERRES
    51   24   94 1    
    52   25   26 2    
    53   25   27 1    
    54   27   28 1    
    55   27   29 1    
    56   27   95 1    
    57   28   96 1    
    58   28   97 1    
    59   28   98 1    
    60   29   30 am   BACKBONE|DICT|INTERRES
    61   29   99 1    
    62   30   31 2    
    63   30   32 1    
    64   32   33 1    
    65   32   34 1    
    66   32  100 1    
    67   33  101 1    
    68   33  102 1    
    69   33  103 1    
    70   34   35 am   BACKBONE|DICT|INTERRES
    71   34  104 1    
    72   35   36 2    
    73   37   38 2    
    74   37   39 am   BACKBONE|DICT|INTERRES
    75   39   40 1    
    76   39  105 1    
    77   40   41 1    
    78   40   42 1    
    79   40  106 1    
    80   41  107 1    
    81   41  108 1    
    82   41  109 1    
    83   42   43 2    
    84   42   44 am   BACKBONE|DICT|INTERRES
    85   44   45 1    
    86   44  110 1    
    87   45   46 1    
    88   45   47 1    
    89   45  111 1    
    90   46  112 1    
    91   46  113 1    
    92   46  114 1    
    93   47   48 2    
    94   47   49 am   BACKBONE|DICT|INTERRES
    95   49   50 1    
    96   49  115 1    
    97   50   51 1    
    98   50   52 1    
    99   50  116 1    
   100   51  117 1    
   101   51  118 1    
   102   51  119 1    
   103   52   53 2    
   104   52   54 am   BACKBONE|DICT|INTERRES
   105   54   55 1    
   106   54  120 1    
   107   55   56 1    
   108   55   57 1    
   109   55  121 1    
   110   56  122 1    
   111   56  123 1    
   112   56  124 1    
   113   57   58 2    
   114   57   59 am   BACKBONE|DICT|INTERRES
   115   59   60 1    
   116   59  125 1    
   117   60   61 1    
   118   60   62 1    
   119   60  126 1    
   120   61  127 1    
   121   61  128 1    
   122   61  129 1    
   123   62   63 2    
   124   62   64 am   BACKBONE|DICT|INTERRES
   125   64   65 1    
   126   64  130 1    
   127   65   66 1    
   128   65   69 1    
   129   65  131 1    
   130   66   67 am   BACKBONE|DICT|INTERRES
   131   66   68 2    
   132   67  132 1    
   133   67  133 1    
   134   69   70 1    
   135   69  134 1    
   136   69  135 1    
   137   70   71 1    
   138   71  136 1    
   139   71  137 1    
@<TRIPOS>SUBSTRUCTURE
     1 UNK         1 GROUP             0       ****    0 ROOT    
