@<TRIPOS>MOLECULE
3R136
137   139    1
SMALL
USER_CHARGES


@<TRIPOS>ATOM
      1 CA         26.1066   19.3978    2.8543 C.3       0 UNK        -0.1979 
      2 C          26.8777   19.7485    1.5903 C.2       0 UNK         0.4864 
      3 O          26.3659   19.5478    0.4883 O.2       0 UNK        -0.5359 
      4 N          28.1048   20.2634    1.7465 N.am      1 UNK        -0.4318 
      5 CA         29.0082   20.6986    0.6729 C.3       1 UNK         0.0824 
      6 C6         30.4620   20.9940    1.1630 C.3       12 UNK        -0.0944 
      7 S7         30.6802   21.2362    2.9686 S.3       12 UNK        -0.2672 
      8 C8         30.6214   23.0438    3.1723 C.3       12 UNK         0.0333 
      9 C9         31.8106   23.7396    2.5298 C.ar      12 UNK        -0.0807 
     10 C10        33.0787   23.6526    3.1117 C.ar      12 UNK        -0.0894 
     11 C11        34.1713   24.3037    2.5305 C.ar      12 UNK        -0.0804 
     12 C12        33.9882   25.0431    1.3584 C.ar      12 UNK        -0.0824 
     13 C13        32.7218   25.1466    0.7759 C.ar      12 UNK        -0.0762 
     14 C14        31.6376   24.4889    1.3640 C.ar      12 UNK        -0.0782 
     15 C15        32.5250   25.9687   -0.4885 C.3       12 UNK         0.0230 
     16 S16        32.7090   27.7596   -0.1972 S.3       12 UNK        -0.2608 
     17 C17        31.5486   28.1082    1.1740 C.3       12 UNK        -0.0989 
     18 CA         30.0531   27.8284    0.8635 C.3       5 UNK         0.0716 
     19 N          29.2415   27.7501    2.0827 N.am      5 UNK        -0.4135 
     20 C          28.9425   28.7728    2.8999 C.2       4 UNK         0.5031 
     21 O          29.3873   29.9135    2.7599 O.2       4 UNK        -0.5229 
     22 CA         27.9381   28.4773    4.0348 C.3       4 UNK         0.0329 
     23 CB         27.2981   29.7535    4.6202 C.3       4 UNK        -0.2001 
     24 N          26.8950   27.5182    3.6457 N.am      4 UNK        -0.4303 
     25 C          26.0655   27.6105    2.5951 C.2       3 UNK         0.5044 
     26 O          26.0321   28.5657    1.8168 O.2       3 UNK        -0.5152 
     27 CA         25.1829   26.3818    2.3207 C.3       3 UNK         0.0319 
     28 CB         23.7445   26.8005    1.9707 C.3       3 UNK        -0.2001 
     29 N          25.7139   25.5410    1.2401 N.am      3 UNK        -0.4354 
     30 C          26.9282   24.9744    1.2049 C.2       2 UNK         0.4964 
     31 O          27.8025   25.1463    2.0587 O.2       2 UNK        -0.5047 
     32 CA         27.2378   24.0705    0.0096 C.3       2 UNK         0.0288 
     33 CB         28.0468   24.8442   -1.0530 C.3       2 UNK        -0.2113 
     34 N          27.9630   22.9112    0.5296 N.am      2 UNK        -0.4145 
     35 C          28.4169   21.8572   -0.1585 C.2       1 UNK         0.5006 
     36 O          28.3543   21.7511   -1.3846 O.2       1 UNK        -0.5103 
     37 C          29.4139   28.7865   -0.1699 C.2       5 UNK         0.5055 
     38 O          30.0715   29.6990   -0.6685 O.2       5 UNK        -0.5220 
     39 N          28.1128   28.5804   -0.4309 N.am      6 UNK        -0.4450 
     40 CA         27.2448   29.3923   -1.2940 C.3       6 UNK         0.0367 
     41 CB         27.6702   29.2760   -2.7733 C.3       6 UNK        -0.1929 
     42 C          27.1410   30.8492   -0.8005 C.2       6 UNK         0.5070 
     43 O          27.3033   31.7865   -1.5835 O.2       6 UNK        -0.5237 
     44 N          26.8905   30.9950    0.5087 N.am      7 UNK        -0.4739 
     45 CA         26.7661   32.2463    1.2679 C.3       7 UNK         0.0276 
     46 CB         25.5499   33.0642    0.7832 C.3       7 UNK        -0.1927 
     47 C          28.0539   33.0950    1.3454 C.2       7 UNK         0.5013 
     48 O          27.9718   34.2729    1.6984 O.2       7 UNK        -0.5193 
     49 N          29.2202   32.5009    1.0521 N.am      8 UNK        -0.4253 
     50 CA         30.5291   33.1520    1.1782 C.3       8 UNK         0.0242 
     51 CB         31.5604   32.4068    0.3168 C.3       8 UNK        -0.2000 
     52 C          31.0205   33.2434    2.6342 C.2       8 UNK         0.4948 
     53 O          31.8603   34.0959    2.9249 O.2       8 UNK        -0.5275 
     54 N          30.5074   32.3618    3.5068 N.am      9 UNK        -0.4246 
     55 CA         30.8574   32.1892    4.9219 C.3       9 UNK         0.0261 
     56 CB         30.5423   33.4573    5.7442 C.3       9 UNK        -0.1959 
     57 C          32.2924   31.6661    5.1273 C.2       9 UNK         0.5033 
     58 O          32.9237   31.9813    6.1383 O.2       9 UNK        -0.5390 
     59 N          32.7738   30.8598    4.1727 N.am      10 UNK        -0.4215 
     60 CA         34.0424   30.1382    4.2557 C.3       10 UNK         0.0240 
     61 CB         34.5992   29.9285    2.8376 C.3       10 UNK        -0.1982 
     62 C          33.8363   28.7887    4.9603 C.2       10 UNK         0.4970 
     63 O          32.7395   28.2267    4.8944 O.2       10 UNK        -0.4916 
     64 N          34.9100   28.2896    5.5851 N.am      11 UNK        -0.4279 
     65 CA         34.9716   27.0137    6.3202 C.3       11 UNK         0.1003 
     66 C          34.0527   26.9886    7.5820 C.2       11 UNK         0.5709 
     67 N          33.7073   25.8192    8.1060 N.am      11 UNK        -0.7358 
     68 O          33.6941   28.0273    8.1352 O.2       11 UNK        -0.4999 
     69 C69        34.8052   25.7745    5.3891 C.3       12 UNK        -0.0954 
     70 S70        36.0086   25.7547    4.0179 S.3       12 UNK        -0.2268 
     71 C71        35.5499   24.2123    3.1677 C.3       12 UNK         0.0203 
     72 H72        25.8613   18.3361    2.8617 H         1 UNK         0.0888 
     73 H73        26.6779   19.6198    3.7556 H         1 UNK         0.0888 
     74 H74        25.1760   19.9633    2.8950 H         1 UNK         0.0888 
     75 H75        28.4805   20.3809    2.6782 H         1 UNK         0.3017 
     76 H76        29.0747   19.8546   -0.0178 H         1 UNK         0.0873 
     77 H77        31.0862   20.1366    0.9065 H         1 UNK         0.0745 
     78 H78        30.9186   21.8256    0.6235 H         1 UNK         0.0745 
     79 H79        30.6090   23.2748    4.2385 H         1 UNK         0.0705 
     80 H80        29.6823   23.4237    2.7728 H         1 UNK         0.0705 
     81 H81        33.2119   23.0785    4.0185 H         1 UNK         0.1334 
     82 H82        34.8288   25.5550    0.9095 H         1 UNK         0.1417 
     83 H83        30.6553   24.5593    0.9200 H         1 UNK         0.1562 
     84 H84        31.5518   25.7712   -0.9391 H         1 UNK         0.0748 
     85 H85        33.2629   25.6607   -1.2306 H         1 UNK         0.0748 
     86 H86        31.6796   29.1469    1.4771 H         1 UNK         0.0940 
     87 H87        31.8669   27.5160    2.0340 H         1 UNK         0.0940 
     88 H88        29.9867   26.8365    0.4236 H         1 UNK         0.0703 
     89 H89        28.8091   26.8494    2.2686 H         1 UNK         0.3081 
     90 H90        28.5179   28.0034    4.8283 H         1 UNK         0.0719 
     91 H91        26.6560   29.5175    5.4685 H         1 UNK         0.0809 
     92 H92        26.6916   30.2753    3.8817 H         1 UNK         0.0809 
     93 H93        28.0543   30.4525    4.9764 H         1 UNK         0.0809 
     94 H94        26.8773   26.6595    4.1794 H         1 UNK         0.2990 
     95 H95        25.1432   25.7733    3.2266 H         1 UNK         0.0690 
     96 H96        23.0913   25.9338    1.8683 H         1 UNK         0.0788 
     97 H97        23.7022   27.3654    1.0383 H         1 UNK         0.0788 
     98 H98        23.3213   27.4327    2.7526 H         1 UNK         0.0788 
     99 H99        25.0800   25.3631    0.4741 H         1 UNK         0.2993 
    100 H100       26.3013   23.7197   -0.4288 H         1 UNK         0.0949 
    101 H101       29.0570   25.0638   -0.7139 H         1 UNK         0.0767 
    102 H102       28.1280   24.2811   -1.9823 H         1 UNK         0.0767 
    103 H103       27.5669   25.7907   -1.3048 H         1 UNK         0.0767 
    104 H104       28.0610   22.9101    1.5364 H         1 UNK         0.3013 
    105 H105       27.6324   27.8734    0.1069 H         1 UNK         0.3121 
    106 H106       26.2423   28.9704   -1.2062 H         1 UNK         0.0774 
    107 H107       26.9599   29.7881   -3.4234 H         1 UNK         0.0815 
    108 H108       28.6498   29.7208   -2.9509 H         1 UNK         0.0815 
    109 H109       27.7109   28.2351   -3.0939 H         1 UNK         0.0815 
    110 H110       26.7372   30.1439    1.0474 H         1 UNK         0.2987 
    111 H111       26.5599   31.9473    2.2953 H         1 UNK         0.0949 
    112 H112       25.7067   33.4703   -0.2165 H         1 UNK         0.0806 
    113 H113       24.6458   32.4557    0.7613 H         1 UNK         0.0806 
    114 H114       25.3530   33.9070    1.4469 H         1 UNK         0.0806 
    115 H115       29.2140   31.5269    0.7756 H         1 UNK         0.3010 
    116 H116       30.4450   34.1715    0.7954 H         1 UNK         0.0829 
    117 H117       31.2430   32.3512   -0.7247 H         1 UNK         0.0813 
    118 H118       32.5257   32.9145    0.3361 H         1 UNK         0.0813 
    119 H119       31.7223   31.3889    0.6710 H         1 UNK         0.0813 
    120 H120       29.8871   31.6438    3.1341 H         1 UNK         0.3038 
    121 H121       30.2074   31.3961    5.2921 H         1 UNK         0.0769 
    122 H122       31.2127   34.2803    5.4956 H         1 UNK         0.0811 
    123 H123       29.5193   33.7942    5.5771 H         1 UNK         0.0811 
    124 H124       30.6492   33.2658    6.8126 H         1 UNK         0.0811 
    125 H125       32.1550   30.6020    3.4183 H         1 UNK         0.3204 
    126 H126       34.7601   30.7329    4.8252 H         1 UNK         0.0748 
    127 H127       35.5863   29.4655    2.8715 H         1 UNK         0.0771 
    128 H128       33.9612   29.2762    2.2423 H         1 UNK         0.0771 
    129 H129       34.7030   30.8745    2.3057 H         1 UNK         0.0771 
    130 H130       35.7613   28.8314    5.5933 H         1 UNK         0.2980 
    131 H131       35.9825   26.9743    6.7270 H         1 UNK         0.0545 
    132 H132       34.0070   24.9518    7.6906 H         1 UNK         0.3459 
    133 H133       33.1334   25.8066    8.9345 H         1 UNK         0.3459 
    134 H134       34.9431   24.8475    5.9469 H         1 UNK         0.0616 
    135 H135       33.7955   25.7428    4.9775 H         1 UNK         0.0616 
    136 H136       35.5990   23.3818    3.8738 H         1 UNK         0.0634 
    137 H137       36.2915   24.0021    2.3958 H         1 UNK         0.0634 
@<TRIPOS>BOND
     1    1    2 1    
     2    1   72 1    
     3    1   73 1    
     4    1   74 1    
     5    2    3 2    
     6    2    4 am   BACKBONE|DICT|INTERRES
     7    4    5 1    
     8    4   75 1    
     9    5    6 1    
    10    5   35 1    
    11    5   76 1    
    12    6    7 1    
    13    6   77 1    
    14    6   78 1    
    15    7    8 1    
    16    8    9 1    
    17    8   79 1    
    18    8   80 1    
    19    9   10 ar   
    20    9   14 ar   
    21   10   11 ar   
    22   10   81 1    
    23   11   12 ar   
    24   11   71 1    
    25   12   13 ar   
    26   12   82 1    
    27   13   14 ar   
    28   13   15 1    
    29   14   83 1    
    30   15   16 1    
    31   15   84 1    
    32   15   85 1    
    33   16   17 1    
    34   17   18 1    
    35   17   86 1    
    36   17   87 1    
    37   18   19 1    
    38   18   37 1    
    39   18   88 1    
    40   19   20 am   BACKBONE|DICT|INTERRES
    41   19   89 1    
    42   20   21 2    
    43   20   22 1    
    44   22   23 1    
    45   22   24 1    
    46   22   90 1    
    47   23   91 1    
    48   23   92 1    
    49   23   93 1    
    50   24   25 am   BACKBONE|DICT|INTERRES
    51   24   94 1    
    52   25   26 2    
    53   25   27 1    
    54   27   28 1    
    55   27   29 1    
    56   27   95 1    
    57   28   96 1    
    58   28   97 1    
    59   28   98 1    
    60   29   30 am   BACKBONE|DICT|INTERRES
    61   29   99 1    
    62   30   31 2    
    63   30   32 1    
    64   32   33 1    
    65   32   34 1    
    66   32  100 1    
    67   33  101 1    
    68   33  102 1    
    69   33  103 1    
    70   34   35 am   BACKBONE|DICT|INTERRES
    71   34  104 1    
    72   35   36 2    
    73   37   38 2    
    74   37   39 am   BACKBONE|DICT|INTERRES
    75   39   40 1    
    76   39  105 1    
    77   40   41 1    
    78   40   42 1    
    79   40  106 1    
    80   41  107 1    
    81   41  108 1    
    82   41  109 1    
    83   42   43 2    
    84   42   44 am   BACKBONE|DICT|INTERRES
    85   44   45 1    
    86   44  110 1    
    87   45   46 1    
    88   45   47 1    
    89   45  111 1    
    90   46  112 1    
    91   46  113 1    
    92   46  114 1    
    93   47   48 2    
    94   47   49 am   BACKBONE|DICT|INTERRES
    95   49   50 1    
    96   49  115 1    
    97   50   51 1    
    98   50   52 1    
    99   50  116 1    
   100   51  117 1    
   101   51  118 1    
   102   51  119 1    
   103   52   53 2    
   104   52   54 am   BACKBONE|DICT|INTERRES
   105   54   55 1    
   106   54  120 1    
   107   55   56 1    
   108   55   57 1    
   109   55  121 1    
   110   56  122 1    
   111   56  123 1    
   112   56  124 1    
   113   57   58 2    
   114   57   59 am   BACKBONE|DICT|INTERRES
   115   59   60 1    
   116   59  125 1    
   117   60   61 1    
   118   60   62 1    
   119   60  126 1    
   120   61  127 1    
   121   61  128 1    
   122   61  129 1    
   123   62   63 2    
   124   62   64 am   BACKBONE|DICT|INTERRES
   125   64   65 1    
   126   64  130 1    
   127   65   66 1    
   128   65   69 1    
   129   65  131 1    
   130   66   67 am   BACKBONE|DICT|INTERRES
   131   66   68 2    
   132   67  132 1    
   133   67  133 1    
   134   69   70 1    
   135   69  134 1    
   136   69  135 1    
   137   70   71 1    
   138   71  136 1    
   139   71  137 1    
@<TRIPOS>SUBSTRUCTURE
     1 UNK         1 GROUP             0       ****    0 ROOT    
