@<TRIPOS>MOLECULE
3R136
137   139    1
SMALL
USER_CHARGES


@<TRIPOS>ATOM
      1 CA         32.6159   22.2469   -1.5274 C.3       0 UNK        -0.1979 
      2 C          31.4050   22.6476   -0.6991 C.2       0 UNK         0.4864 
      3 O          31.0889   23.8356   -0.6123 O.2       0 UNK        -0.5359 
      4 N          30.7163   21.6672   -0.0987 N.am      1 UNK        -0.4318 
      5 CA         29.5622   21.8527    0.7905 C.3       1 UNK         0.0824 
      6 C6         29.3747   20.6593    1.7710 C.3       12 UNK        -0.0944 
      7 S7         30.9050   20.1305    2.6224 S.3       12 UNK        -0.2672 
      8 C8         30.8905   21.1336    4.1426 C.3       12 UNK         0.0333 
      9 C9         31.2174   22.5896    3.8499 C.ar      12 UNK        -0.0807 
     10 C10        32.5242   22.9633    3.5197 C.ar      12 UNK        -0.0894 
     11 C11        32.8258   24.2929    3.2088 C.ar      12 UNK        -0.0804 
     12 C12        31.8055   25.2479    3.2236 C.ar      12 UNK        -0.0824 
     13 C13        30.4956   24.8844    3.5437 C.ar      12 UNK        -0.0762 
     14 C14        30.2102   23.5581    3.8785 C.ar      12 UNK        -0.0782 
     15 C15        29.3761   25.9092    3.4834 C.3       12 UNK         0.0230 
     16 S16        28.5741   25.8756    1.8507 S.3       12 UNK        -0.2608 
     17 C17        29.5907   27.0545    0.8841 C.3       12 UNK        -0.0989 
     18 CA         28.8628   28.3920    0.5830 C.3       5 UNK         0.0716 
     19 N          27.5740   28.1550   -0.0740 N.am      5 UNK        -0.4135 
     20 C          26.6575   29.0652   -0.4342 C.2       4 UNK         0.5031 
     21 O          26.8372   30.2810   -0.3709 O.2       4 UNK        -0.5229 
     22 CA         25.2849   28.5237   -0.8836 C.3       4 UNK         0.0329 
     23 CB         25.1516   28.6044   -2.4123 C.3       4 UNK        -0.2001 
     24 N          25.0285   27.1429   -0.4534 N.am      4 UNK        -0.4303 
     25 C          24.9631   26.7092    0.8137 C.2       3 UNK         0.5044 
     26 O          25.0117   27.4571    1.7904 O.2       3 UNK        -0.5152 
     27 CA         24.9547   25.1846    1.0301 C.3       3 UNK         0.0319 
     28 CB         23.5436   24.5897    0.8578 C.3       3 UNK        -0.2001 
     29 N          25.9677   24.4825    0.2216 N.am      3 UNK        -0.4354 
     30 C          26.0014   24.2913   -1.1062 C.2       2 UNK         0.4964 
     31 O          25.0944   24.6403   -1.8627 O.2       2 UNK        -0.5047 
     32 CA         27.2807   23.6930   -1.7217 C.3       2 UNK         0.0288 
     33 CB         27.9253   24.7013   -2.6901 C.3       2 UNK        -0.2113 
     34 N          28.3022   23.2768   -0.7566 N.am      2 UNK        -0.4145 
     35 C          28.2783   22.1629   -0.0153 C.2       1 UNK         0.5006 
     36 O          27.3176   21.3913    0.0140 O.2       1 UNK        -0.5103 
     37 C          28.7570   29.2634    1.8549 C.2       5 UNK         0.5055 
     38 O          29.6794   30.0282    2.1330 O.2       5 UNK        -0.5220 
     39 N          27.6291   29.1627    2.5776 N.am      6 UNK        -0.4450 
     40 CA         27.3212   29.9238    3.7913 C.3       6 UNK         0.0367 
     41 CB         26.0577   29.3340    4.4385 C.3       6 UNK        -0.1929 
     42 C          27.1631   31.4429    3.5777 C.2       6 UNK         0.5070 
     43 O          27.1471   32.1818    4.5627 O.2       6 UNK        -0.5237 
     44 N          27.0568   31.8974    2.3194 N.am      7 UNK        -0.4739 
     45 CA         27.0848   33.3168    1.9519 C.3       7 UNK         0.0276 
     46 CB         26.5330   33.4793    0.5264 C.3       7 UNK        -0.1927 
     47 C          28.4899   33.9445    2.0601 C.2       7 UNK         0.5013 
     48 O          28.5931   35.1720    2.0788 O.2       7 UNK        -0.5193 
     49 N          29.5350   33.1097    2.1221 N.am      8 UNK        -0.4253 
     50 CA         30.9312   33.4947    2.3145 C.3       8 UNK         0.0242 
     51 CB         31.7480   32.9380    1.1336 C.3       8 UNK        -0.2000 
     52 C          31.4410   32.9224    3.6469 C.2       8 UNK         0.4948 
     53 O          30.7277   32.1684    4.3132 O.2       8 UNK        -0.5275 
     54 N          32.6826   33.2754    4.0099 N.am      9 UNK        -0.4246 
     55 CA         33.3970   32.6810    5.1457 C.3       9 UNK         0.0261 
     56 CB         34.6657   33.4932    5.4545 C.3       9 UNK        -0.1959 
     57 C          33.7350   31.2008    4.8931 C.2       9 UNK         0.5033 
     58 O          33.4963   30.3672    5.7681 O.2       9 UNK        -0.5390 
     59 N          34.2445   30.9114    3.6844 N.am      10 UNK        -0.4215 
     60 CA         34.5400   29.5852    3.1323 C.3       10 UNK         0.0240 
     61 CB         33.2224   28.8990    2.7047 C.3       10 UNK        -0.1982 
     62 C          35.4305   28.7407    4.0687 C.2       10 UNK         0.4970 
     63 O          36.5768   29.1246    4.3070 O.2       10 UNK        -0.4916 
     64 N          34.8938   27.6271    4.5808 N.am      11 UNK        -0.4279 
     65 CA         35.5379   26.7447    5.5653 C.3       11 UNK         0.1003 
     66 C          35.5615   27.3061    7.0195 C.2       11 UNK         0.5709 
     67 N          34.9177   28.4244    7.3315 N.am      11 UNK        -0.7358 
     68 O          36.1959   26.7145    7.8901 O.2       11 UNK        -0.4999 
     69 C69        34.9194   25.3203    5.5176 C.3       12 UNK        -0.0954 
     70 S70        35.4893   24.3472    4.0828 S.3       12 UNK        -0.2268 
     71 C71        34.2386   24.6933    2.8037 C.3       12 UNK         0.0203 
     72 H72        32.7765   21.1689   -1.5199 H         1 UNK         0.0888 
     73 H73        32.4846   22.5644   -2.5614 H         1 UNK         0.0888 
     74 H74        33.5119   22.7261   -1.1338 H         1 UNK         0.0888 
     75 H75        31.0166   20.7099   -0.2143 H         1 UNK         0.3017 
     76 H76        29.7572   22.7414    1.3903 H         1 UNK         0.0873 
     77 H77        28.6153   20.8978    2.5178 H         1 UNK         0.0745 
     78 H78        29.0020   19.7848    1.2341 H         1 UNK         0.0745 
     79 H79        29.9239   21.0365    4.6393 H         1 UNK         0.0705 
     80 H80        31.6318   20.7330    4.8356 H         1 UNK         0.0705 
     81 H81        33.3043   22.2149    3.4872 H         1 UNK         0.1334 
     82 H82        32.0210   26.2709    2.9582 H         1 UNK         0.1417 
     83 H83        29.1945   23.2730    4.1175 H         1 UNK         0.1562 
     84 H84        29.7472   26.9109    3.7063 H         1 UNK         0.0748 
     85 H85        28.6291   25.6858    4.2465 H         1 UNK         0.0748 
     86 H86        29.8543   26.5647   -0.0549 H         1 UNK         0.0940 
     87 H87        30.5431   27.2369    1.3839 H         1 UNK         0.0940 
     88 H88        29.4730   28.9542   -0.1267 H         1 UNK         0.0703 
     89 H89        27.3108   27.1848   -0.1512 H         1 UNK         0.3081 
     90 H90        24.5211   29.1605   -0.4329 H         1 UNK         0.0719 
     91 H91        25.3142   29.6238   -2.7657 H         1 UNK         0.0809 
     92 H92        24.1560   28.3047   -2.7400 H         1 UNK         0.0809 
     93 H93        25.8775   27.9641   -2.9153 H         1 UNK         0.0809 
     94 H94        24.9733   26.4347   -1.1808 H         1 UNK         0.2990 
     95 H95        25.2495   25.0181    2.0676 H         1 UNK         0.0690 
     96 H96        23.5429   23.5149    1.0390 H         1 UNK         0.0788 
     97 H97        23.1398   24.7622   -0.1399 H         1 UNK         0.0788 
     98 H98        22.8472   25.0388    1.5671 H         1 UNK         0.0788 
     99 H99        26.7907   24.1988    0.7356 H         1 UNK         0.2993 
    100 H100       26.9744   22.8146   -2.2940 H         1 UNK         0.0949 
    101 H101       27.2259   25.0055   -3.4703 H         1 UNK         0.0767 
    102 H102       28.2522   25.6046   -2.1733 H         1 UNK         0.0767 
    103 H103       28.7933   24.2703   -3.1899 H         1 UNK         0.0767 
    104 H104       29.1663   23.8143   -0.7382 H         1 UNK         0.3013 
    105 H105       26.9128   28.5171    2.2648 H         1 UNK         0.3121 
    106 H106       28.1558   29.7877    4.4825 H         1 UNK         0.0774 
    107 H107       25.8280   29.8360    5.3794 H         1 UNK         0.0815 
    108 H108       25.1872   29.4416    3.7900 H         1 UNK         0.0815 
    109 H109       26.1815   28.2737    4.6597 H         1 UNK         0.0815 
    110 H110       27.0555   31.2322    1.5535 H         1 UNK         0.2987 
    111 H111       26.4307   33.8630    2.6351 H         1 UNK         0.0949 
    112 H112       25.5299   33.0619    0.4371 H         1 UNK         0.0806 
    113 H113       26.4721   34.5326    0.2491 H         1 UNK         0.0806 
    114 H114       27.1684   32.9855   -0.2098 H         1 UNK         0.0806 
    115 H115       29.3586   32.1117    2.1880 H         1 UNK         0.3010 
    116 H116       31.0349   34.5813    2.3469 H         1 UNK         0.0829 
    117 H117       31.3612   33.3012    0.1813 H         1 UNK         0.0813 
    118 H118       32.7936   33.2419    1.1901 H         1 UNK         0.0813 
    119 H119       31.7237   31.8473    1.1076 H         1 UNK         0.0813 
    120 H120       33.1969   33.9252    3.4323 H         1 UNK         0.3038 
    121 H121       32.7444   32.7279    6.0205 H         1 UNK         0.0769 
    122 H122       35.3552   33.5142    4.6098 H         1 UNK         0.0811 
    123 H123       35.2030   33.0655    6.3023 H         1 UNK         0.0811 
    124 H124       34.4223   34.5235    5.7147 H         1 UNK         0.0811 
    125 H125       34.4362   31.6864    3.0665 H         1 UNK         0.3204 
    126 H126       35.1288   29.7523    2.2290 H         1 UNK         0.0748 
    127 H127       32.6636   29.5284    2.0114 H         1 UNK         0.0771 
    128 H128       33.4195   27.9618    2.1850 H         1 UNK         0.0771 
    129 H129       32.5649   28.6968    3.5514 H         1 UNK         0.0771 
    130 H130       33.9313   27.4191    4.3683 H         1 UNK         0.2980 
    131 H131       36.5898   26.6575    5.2865 H         1 UNK         0.0545 
    132 H132       34.4038   28.9610    6.6372 H         1 UNK         0.3459 
    133 H133       34.9589   28.7587    8.2805 H         1 UNK         0.3459 
    134 H134       35.2093   24.7406    6.3960 H         1 UNK         0.0616 
    135 H135       33.8297   25.3637    5.5442 H         1 UNK         0.0616 
    136 H136       34.5083   24.1449    1.9002 H         1 UNK         0.0634 
    137 H137       34.2888   25.7493    2.5399 H         1 UNK         0.0634 
@<TRIPOS>BOND
     1    1    2 1    
     2    1   72 1    
     3    1   73 1    
     4    1   74 1    
     5    2    3 2    
     6    2    4 am   BACKBONE|DICT|INTERRES
     7    4    5 1    
     8    4   75 1    
     9    5    6 1    
    10    5   35 1    
    11    5   76 1    
    12    6    7 1    
    13    6   77 1    
    14    6   78 1    
    15    7    8 1    
    16    8    9 1    
    17    8   79 1    
    18    8   80 1    
    19    9   10 ar   
    20    9   14 ar   
    21   10   11 ar   
    22   10   81 1    
    23   11   12 ar   
    24   11   71 1    
    25   12   13 ar   
    26   12   82 1    
    27   13   14 ar   
    28   13   15 1    
    29   14   83 1    
    30   15   16 1    
    31   15   84 1    
    32   15   85 1    
    33   16   17 1    
    34   17   18 1    
    35   17   86 1    
    36   17   87 1    
    37   18   19 1    
    38   18   37 1    
    39   18   88 1    
    40   19   20 am   BACKBONE|DICT|INTERRES
    41   19   89 1    
    42   20   21 2    
    43   20   22 1    
    44   22   23 1    
    45   22   24 1    
    46   22   90 1    
    47   23   91 1    
    48   23   92 1    
    49   23   93 1    
    50   24   25 am   BACKBONE|DICT|INTERRES
    51   24   94 1    
    52   25   26 2    
    53   25   27 1    
    54   27   28 1    
    55   27   29 1    
    56   27   95 1    
    57   28   96 1    
    58   28   97 1    
    59   28   98 1    
    60   29   30 am   BACKBONE|DICT|INTERRES
    61   29   99 1    
    62   30   31 2    
    63   30   32 1    
    64   32   33 1    
    65   32   34 1    
    66   32  100 1    
    67   33  101 1    
    68   33  102 1    
    69   33  103 1    
    70   34   35 am   BACKBONE|DICT|INTERRES
    71   34  104 1    
    72   35   36 2    
    73   37   38 2    
    74   37   39 am   BACKBONE|DICT|INTERRES
    75   39   40 1    
    76   39  105 1    
    77   40   41 1    
    78   40   42 1    
    79   40  106 1    
    80   41  107 1    
    81   41  108 1    
    82   41  109 1    
    83   42   43 2    
    84   42   44 am   BACKBONE|DICT|INTERRES
    85   44   45 1    
    86   44  110 1    
    87   45   46 1    
    88   45   47 1    
    89   45  111 1    
    90   46  112 1    
    91   46  113 1    
    92   46  114 1    
    93   47   48 2    
    94   47   49 am   BACKBONE|DICT|INTERRES
    95   49   50 1    
    96   49  115 1    
    97   50   51 1    
    98   50   52 1    
    99   50  116 1    
   100   51  117 1    
   101   51  118 1    
   102   51  119 1    
   103   52   53 2    
   104   52   54 am   BACKBONE|DICT|INTERRES
   105   54   55 1    
   106   54  120 1    
   107   55   56 1    
   108   55   57 1    
   109   55  121 1    
   110   56  122 1    
   111   56  123 1    
   112   56  124 1    
   113   57   58 2    
   114   57   59 am   BACKBONE|DICT|INTERRES
   115   59   60 1    
   116   59  125 1    
   117   60   61 1    
   118   60   62 1    
   119   60  126 1    
   120   61  127 1    
   121   61  128 1    
   122   61  129 1    
   123   62   63 2    
   124   62   64 am   BACKBONE|DICT|INTERRES
   125   64   65 1    
   126   64  130 1    
   127   65   66 1    
   128   65   69 1    
   129   65  131 1    
   130   66   67 am   BACKBONE|DICT|INTERRES
   131   66   68 2    
   132   67  132 1    
   133   67  133 1    
   134   69   70 1    
   135   69  134 1    
   136   69  135 1    
   137   70   71 1    
   138   71  136 1    
   139   71  137 1    
@<TRIPOS>SUBSTRUCTURE
     1 UNK         1 GROUP             0       ****    0 ROOT    
