@<TRIPOS>MOLECULE
3R136
137   139    1
SMALL
USER_CHARGES


@<TRIPOS>ATOM
      1 CA         31.2156   18.4744   -2.8051 C.3       0 UNK        -0.1979 
      2 C          30.5276   19.8291   -2.7196 C.2       0 UNK         0.4864 
      3 O          29.5694   20.0753   -3.4540 O.2       0 UNK        -0.5359 
      4 N          31.0131   20.7105   -1.8353 N.am      1 UNK        -0.4318 
      5 CA         30.4355   22.0316   -1.5676 C.3       1 UNK         0.0824 
      6 C6         31.4432   22.9470   -0.8195 C.3       12 UNK        -0.0944 
      7 S7         31.4789   24.6559   -1.4605 S.3       12 UNK        -0.2672 
      8 C8         30.2195   25.5255   -0.4702 C.3       12 UNK         0.0333 
      9 C9         30.4009   25.3472    1.0295 C.ar      12 UNK        -0.0807 
     10 C10        31.5147   25.8831    1.6797 C.ar      12 UNK        -0.0894 
     11 C11        31.6669   25.7382    3.0620 C.ar      12 UNK        -0.0804 
     12 C12        30.6926   25.0571    3.7986 C.ar      12 UNK        -0.0824 
     13 C13        29.5636   24.5344    3.1590 C.ar      12 UNK        -0.0762 
     14 C14        29.4344   24.6684    1.7739 C.ar      12 UNK        -0.0782 
     15 C15        28.4547   23.8677    3.9601 C.3       12 UNK         0.0230 
     16 S16        26.8659   24.7443    3.7658 S.3       12 UNK        -0.2608 
     17 C17        27.1780   26.3190    4.6422 C.3       12 UNK        -0.0989 
     18 CA         27.8472   27.4095    3.7640 C.3       5 UNK         0.0716 
     19 N          27.1734   27.6079    2.4831 N.am      5 UNK        -0.4135 
     20 C          27.6525   28.3208    1.4572 C.2       4 UNK         0.5031 
     21 O          28.7363   28.9126    1.4932 O.2       4 UNK        -0.5229 
     22 CA         26.7793   28.3962    0.1859 C.3       4 UNK         0.0329 
     23 CB         27.6000   28.7447   -1.0687 C.3       4 UNK        -0.2001 
     24 N          26.0114   27.1738   -0.0795 N.am      4 UNK        -0.4303 
     25 C          24.8756   26.8080    0.5253 C.2       3 UNK         0.5044 
     26 O          24.3674   27.4448    1.4478 O.2       3 UNK        -0.5152 
     27 CA         24.2024   25.5086    0.0507 C.3       3 UNK         0.0319 
     28 CB         23.5172   25.7025   -1.3167 C.3       3 UNK        -0.2001 
     29 N          25.0723   24.3230    0.0576 N.am      3 UNK        -0.4354 
     30 C          26.1439   24.0617   -0.7033 C.2       2 UNK         0.4964 
     31 O          26.6166   24.8408   -1.5358 O.2       2 UNK        -0.5047 
     32 CA         26.7847   22.6835   -0.5043 C.3       2 UNK         0.0288 
     33 CB         25.9063   21.5703   -1.1073 C.3       2 UNK        -0.2113 
     34 N          28.1002   22.6689   -1.1392 N.am      2 UNK        -0.4145 
     35 C          29.1176   21.8803   -0.7793 C.2       1 UNK         0.5006 
     36 O          29.0562   21.0679    0.1482 O.2       1 UNK        -0.5103 
     37 C          27.9526   28.7497    4.5109 C.2       5 UNK         0.5055 
     38 O          26.9236   29.3617    4.8040 O.2       5 UNK        -0.5220 
     39 N          29.1949   29.1868    4.7573 N.am      6 UNK        -0.4450 
     40 CA         29.5852   30.4832    5.3267 C.3       6 UNK         0.0367 
     41 CB         29.0236   30.6745    6.7517 C.3       6 UNK        -0.1929 
     42 C          29.3036   31.6861    4.4005 C.2       6 UNK         0.5070 
     43 O          29.3382   32.8253    4.8686 O.2       6 UNK        -0.5237 
     44 N          29.0561   31.4257    3.1088 N.am      7 UNK        -0.4739 
     45 CA         28.9122   32.4367    2.0596 C.3       7 UNK         0.0276 
     46 CB         27.5416   32.2882    1.3790 C.3       7 UNK        -0.1927 
     47 C          30.0473   32.3159    1.0332 C.2       7 UNK         0.5013 
     48 O          30.5565   33.3415    0.5803 O.2       7 UNK        -0.5193 
     49 N          30.4399   31.0775    0.6954 N.am      8 UNK        -0.4253 
     50 CA         31.5445   30.7739   -0.2199 C.3       8 UNK         0.0242 
     51 CB         31.4773   29.2888   -0.6101 C.3       8 UNK        -0.2000 
     52 C          32.9348   31.1075    0.3514 C.2       8 UNK         0.4948 
     53 O          33.8534   31.3793   -0.4232 O.2       8 UNK        -0.5275 
     54 N          33.0684   31.0734    1.6809 N.am      9 UNK        -0.4246 
     55 CA         34.2849   31.3349    2.4435 C.3       9 UNK         0.0261 
     56 CB         35.2524   30.1382    2.3218 C.3       9 UNK        -0.1959 
     57 C          33.8827   31.5834    3.9031 C.2       9 UNK         0.5033 
     58 O          32.7023   31.4591    4.2430 O.2       9 UNK        -0.5390 
     59 N          34.8651   31.8906    4.7590 N.am      10 UNK        -0.4215 
     60 CA         34.7027   32.0126    6.2117 C.3       10 UNK         0.0240 
     61 CB         35.8512   32.8716    6.7742 C.3       10 UNK        -0.1982 
     62 C          34.6181   30.6229    6.8772 C.2       10 UNK         0.4970 
     63 O          35.5248   30.2314    7.6142 O.2       10 UNK        -0.4916 
     64 N          33.5455   29.8890    6.5613 N.am      11 UNK        -0.4279 
     65 CA         33.3042   28.4940    6.9701 C.3       11 UNK         0.1003 
     66 C          33.0064   28.2899    8.4842 C.2       11 UNK         0.5709 
     67 N          32.7051   29.3316    9.2505 N.am      11 UNK        -0.7358 
     68 O          33.0533   27.1630    8.9715 O.2       11 UNK        -0.4999 
     69 C69        32.2055   27.8214    6.1017 C.3       12 UNK        -0.0954 
     70 S70        32.4905   28.0362    4.3092 S.3       12 UNK        -0.2268 
     71 C71        32.8721   26.3493    3.7544 C.3       12 UNK         0.0203 
     72 H72        32.0525   18.3972   -2.1113 H         1 UNK         0.0888 
     73 H73        30.5078   17.6793   -2.5721 H         1 UNK         0.0888 
     74 H74        31.5950   18.3091   -3.8132 H         1 UNK         0.0888 
     75 H75        31.7782   20.4372   -1.2355 H         1 UNK         0.3017 
     76 H76        30.2053   22.4752   -2.5392 H         1 UNK         0.0873 
     77 H77        31.2974   22.9370    0.2622 H         1 UNK         0.0745 
     78 H78        32.4594   22.5742   -0.9589 H         1 UNK         0.0745 
     79 H79        29.2289   25.1992   -0.7845 H         1 UNK         0.0705 
     80 H80        30.2694   26.5885   -0.7047 H         1 UNK         0.0705 
     81 H81        32.2609   26.4177    1.1080 H         1 UNK         0.1334 
     82 H82        30.8000   24.9632    4.8706 H         1 UNK         0.1417 
     83 H83        28.5581   24.2705    1.2843 H         1 UNK         0.1562 
     84 H84        28.7103   23.8089    5.0192 H         1 UNK         0.0748 
     85 H85        28.3366   22.8404    3.6126 H         1 UNK         0.0748 
     86 H86        27.7858   26.1181    5.5265 H         1 UNK         0.0940 
     87 H87        26.2152   26.6736    5.0159 H         1 UNK         0.0940 
     88 H88        28.8598   27.0833    3.5302 H         1 UNK         0.0703 
     89 H89        26.2421   27.2214    2.3995 H         1 UNK         0.3081 
     90 H90        26.0714   29.2110    0.3505 H         1 UNK         0.0719 
     91 H91        28.3343   27.9714   -1.2935 H         1 UNK         0.0809 
     92 H92        26.9576   28.8580   -1.9420 H         1 UNK         0.0809 
     93 H93        28.1373   29.6857   -0.9450 H         1 UNK         0.0809 
     94 H94        26.3784   26.5394   -0.7850 H         1 UNK         0.2990 
     95 H95        23.4142   25.2904    0.7734 H         1 UNK         0.0690 
     96 H96        22.9636   24.8110   -1.6113 H         1 UNK         0.0788 
     97 H97        24.2323   25.9284   -2.1083 H         1 UNK         0.0788 
     98 H98        22.8051   26.5281   -1.2805 H         1 UNK         0.0788 
     99 H99        24.8004   23.6159    0.7273 H         1 UNK         0.2993 
    100 H100       26.8992   22.5172    0.5695 H         1 UNK         0.0949 
    101 H101       25.7660   21.7076   -2.1804 H         1 UNK         0.0767 
    102 H102       26.3508   20.5867   -0.9534 H         1 UNK         0.0767 
    103 H103       24.9174   21.5501   -0.6477 H         1 UNK         0.0767 
    104 H104       28.2153   23.3550   -1.8754 H         1 UNK         0.3013 
    105 H105       29.9678   28.6167    4.4367 H         1 UNK         0.3121 
    106 H106       30.6689   30.4427    5.4220 H         1 UNK         0.0774 
    107 H107       29.4643   31.5504    7.2291 H         1 UNK         0.0815 
    108 H108       27.9433   30.8204    6.7478 H         1 UNK         0.0815 
    109 H109       29.2467   29.8167    7.3859 H         1 UNK         0.0815 
    110 H110       29.0248   30.4579    2.8081 H         1 UNK         0.2987 
    111 H111       28.9684   33.4405    2.4866 H         1 UNK         0.0949 
    112 H112       27.3995   33.0589    0.6203 H         1 UNK         0.0806 
    113 H113       27.4332   31.3235    0.8855 H         1 UNK         0.0806 
    114 H114       26.7301   32.3887    2.0998 H         1 UNK         0.0806 
    115 H115       29.9247   30.2796    1.0602 H         1 UNK         0.3010 
    116 H116       31.4113   31.3724   -1.1237 H         1 UNK         0.0829 
    117 H117       30.5595   29.0647   -1.1515 H         1 UNK         0.0813 
    118 H118       32.3089   29.0124   -1.2599 H         1 UNK         0.0813 
    119 H119       31.5171   28.6423    0.2673 H         1 UNK         0.0813 
    120 H120       32.2574   30.8997    2.2630 H         1 UNK         0.3038 
    121 H121       34.7589   32.2402    2.0593 H         1 UNK         0.0769 
    122 H122       36.1793   30.3137    2.8683 H         1 UNK         0.0811 
    123 H123       35.5295   29.9517    1.2843 H         1 UNK         0.0811 
    124 H124       34.8094   29.2228    2.7152 H         1 UNK         0.0811 
    125 H125       35.8105   31.9511    4.4084 H         1 UNK         0.3204 
    126 H126       33.7660   32.5340    6.4218 H         1 UNK         0.0748 
    127 H127       36.8264   32.4204    6.5862 H         1 UNK         0.0771 
    128 H128       35.8526   33.8686    6.3331 H         1 UNK         0.0771 
    129 H129       35.7521   32.9972    7.8533 H         1 UNK         0.0771 
    130 H130       32.8994   30.2763    5.8825 H         1 UNK         0.2980 
    131 H131       34.2340   27.9544    6.7802 H         1 UNK         0.0545 
    132 H132       32.5181   29.1863   10.2300 H         1 UNK         0.3459 
    133 H133       32.6695   30.2591    8.8606 H         1 UNK         0.3459 
    134 H134       31.2297   28.2402    6.3462 H         1 UNK         0.0616 
    135 H135       32.1336   26.7577    6.3339 H         1 UNK         0.0616 
    136 H136       33.7146   26.3949    3.0627 H         1 UNK         0.0634 
    137 H137       33.1999   25.7259    4.5871 H         1 UNK         0.0634 
@<TRIPOS>BOND
     1    1    2 1    
     2    1   72 1    
     3    1   73 1    
     4    1   74 1    
     5    2    3 2    
     6    2    4 am   BACKBONE|DICT|INTERRES
     7    4    5 1    
     8    4   75 1    
     9    5    6 1    
    10    5   35 1    
    11    5   76 1    
    12    6    7 1    
    13    6   77 1    
    14    6   78 1    
    15    7    8 1    
    16    8    9 1    
    17    8   79 1    
    18    8   80 1    
    19    9   10 ar   
    20    9   14 ar   
    21   10   11 ar   
    22   10   81 1    
    23   11   12 ar   
    24   11   71 1    
    25   12   13 ar   
    26   12   82 1    
    27   13   14 ar   
    28   13   15 1    
    29   14   83 1    
    30   15   16 1    
    31   15   84 1    
    32   15   85 1    
    33   16   17 1    
    34   17   18 1    
    35   17   86 1    
    36   17   87 1    
    37   18   19 1    
    38   18   37 1    
    39   18   88 1    
    40   19   20 am   BACKBONE|DICT|INTERRES
    41   19   89 1    
    42   20   21 2    
    43   20   22 1    
    44   22   23 1    
    45   22   24 1    
    46   22   90 1    
    47   23   91 1    
    48   23   92 1    
    49   23   93 1    
    50   24   25 am   BACKBONE|DICT|INTERRES
    51   24   94 1    
    52   25   26 2    
    53   25   27 1    
    54   27   28 1    
    55   27   29 1    
    56   27   95 1    
    57   28   96 1    
    58   28   97 1    
    59   28   98 1    
    60   29   30 am   BACKBONE|DICT|INTERRES
    61   29   99 1    
    62   30   31 2    
    63   30   32 1    
    64   32   33 1    
    65   32   34 1    
    66   32  100 1    
    67   33  101 1    
    68   33  102 1    
    69   33  103 1    
    70   34   35 am   BACKBONE|DICT|INTERRES
    71   34  104 1    
    72   35   36 2    
    73   37   38 2    
    74   37   39 am   BACKBONE|DICT|INTERRES
    75   39   40 1    
    76   39  105 1    
    77   40   41 1    
    78   40   42 1    
    79   40  106 1    
    80   41  107 1    
    81   41  108 1    
    82   41  109 1    
    83   42   43 2    
    84   42   44 am   BACKBONE|DICT|INTERRES
    85   44   45 1    
    86   44  110 1    
    87   45   46 1    
    88   45   47 1    
    89   45  111 1    
    90   46  112 1    
    91   46  113 1    
    92   46  114 1    
    93   47   48 2    
    94   47   49 am   BACKBONE|DICT|INTERRES
    95   49   50 1    
    96   49  115 1    
    97   50   51 1    
    98   50   52 1    
    99   50  116 1    
   100   51  117 1    
   101   51  118 1    
   102   51  119 1    
   103   52   53 2    
   104   52   54 am   BACKBONE|DICT|INTERRES
   105   54   55 1    
   106   54  120 1    
   107   55   56 1    
   108   55   57 1    
   109   55  121 1    
   110   56  122 1    
   111   56  123 1    
   112   56  124 1    
   113   57   58 2    
   114   57   59 am   BACKBONE|DICT|INTERRES
   115   59   60 1    
   116   59  125 1    
   117   60   61 1    
   118   60   62 1    
   119   60  126 1    
   120   61  127 1    
   121   61  128 1    
   122   61  129 1    
   123   62   63 2    
   124   62   64 am   BACKBONE|DICT|INTERRES
   125   64   65 1    
   126   64  130 1    
   127   65   66 1    
   128   65   69 1    
   129   65  131 1    
   130   66   67 am   BACKBONE|DICT|INTERRES
   131   66   68 2    
   132   67  132 1    
   133   67  133 1    
   134   69   70 1    
   135   69  134 1    
   136   69  135 1    
   137   70   71 1    
   138   71  136 1    
   139   71  137 1    
@<TRIPOS>SUBSTRUCTURE
     1 UNK         1 GROUP             0       ****    0 ROOT    
