@<TRIPOS>MOLECULE
3R136
137   139    1
SMALL
USER_CHARGES


@<TRIPOS>ATOM
      1 CA         26.8739   24.6516    5.1994 C.3       0 UNK        -0.1979 
      2 C          27.3942   24.2211    3.8359 C.2       0 UNK         0.4864 
      3 O          27.9079   25.0525    3.0874 O.2       0 UNK        -0.5359 
      4 N          27.2656   22.9286    3.5101 N.am      1 UNK        -0.4318 
      5 CA         27.7036   22.2667    2.2720 C.3       1 UNK         0.0824 
      6 C6         29.2209   22.3893    1.9694 C.3       12 UNK        -0.0944 
      7 S7         30.3242   21.8715    3.3282 S.3       12 UNK        -0.2672 
      8 C8         31.8033   21.3207    2.4092 C.3       12 UNK         0.0333 
      9 C9         32.4856   22.4647    1.6663 C.ar      12 UNK        -0.0807 
     10 C10        33.5626   23.1499    2.2397 C.ar      12 UNK        -0.0894 
     11 C11        34.1827   24.1988    1.5507 C.ar      12 UNK        -0.0804 
     12 C12        33.7070   24.5745    0.2900 C.ar      12 UNK        -0.0824 
     13 C13        32.6169   23.9114   -0.2812 C.ar      12 UNK        -0.0762 
     14 C14        32.0374   22.8379    0.3962 C.ar      12 UNK        -0.0782 
     15 C15        32.0259   24.3693   -1.6086 C.3       12 UNK         0.0230 
     16 S16        31.3829   26.0806   -1.5746 S.3       12 UNK        -0.2608 
     17 C17        30.6013   26.2546    0.0715 C.3       12 UNK        -0.0989 
     18 CA         30.3115   27.7503    0.3693 C.3       5 UNK         0.0716 
     19 N          29.1995   28.2593   -0.4340 N.am      5 UNK        -0.4135 
     20 C          29.2588   29.3153   -1.2564 C.2       4 UNK         0.5031 
     21 O          30.2622   30.0164   -1.3994 O.2       4 UNK        -0.5229 
     22 CA         28.0138   29.6427   -2.1052 C.3       4 UNK         0.0329 
     23 CB         28.3127   29.4228   -3.5986 C.3       4 UNK        -0.2001 
     24 N          26.8353   28.8502   -1.7489 N.am      4 UNK        -0.4303 
     25 C          25.9442   29.1848   -0.8073 C.2       3 UNK         0.5044 
     26 O          25.9949   30.2235   -0.1495 O.2       3 UNK        -0.5152 
     27 CA         24.8014   28.1837   -0.5486 C.3       3 UNK         0.0319 
     28 CB         23.5859   28.5282   -1.4246 C.3       3 UNK        -0.2001 
     29 N          25.1524   26.7696   -0.7458 N.am      3 UNK        -0.4354 
     30 C          26.1570   26.1207   -0.1407 C.2       2 UNK         0.4964 
     31 O          26.9917   26.6651    0.5858 O.2       2 UNK        -0.5047 
     32 CA         26.2811   24.6238   -0.4381 C.3       2 UNK         0.0288 
     33 CB         27.1027   24.3895   -1.7198 C.3       2 UNK        -0.2113 
     34 N          26.9362   23.9872    0.6979 N.am      2 UNK        -0.4145 
     35 C          26.8792   22.6957    1.0380 C.2       1 UNK         0.5006 
     36 O          26.2262   21.8529    0.4199 O.2       1 UNK        -0.5103 
     37 C          30.0602   28.0988    1.8490 C.2       5 UNK         0.5055 
     38 O          29.7614   29.2585    2.1392 O.2       5 UNK        -0.5220 
     39 N          30.2344   27.1399    2.7716 N.am      6 UNK        -0.4450 
     40 CA         30.2588   27.3551    4.2243 C.3       6 UNK         0.0367 
     41 CB         30.6796   26.0587    4.9352 C.3       6 UNK        -0.1929 
     42 C          28.9704   27.9500    4.8252 C.2       6 UNK         0.5070 
     43 O          29.0311   28.5642    5.8905 O.2       6 UNK        -0.5237 
     44 N          27.8431   27.8302    4.1116 N.am      7 UNK        -0.4739 
     45 CA         26.5840   28.5294    4.3869 C.3       7 UNK         0.0276 
     46 CB         25.5259   28.0543    3.3817 C.3       7 UNK        -0.1927 
     47 C          26.7054   30.0673    4.3346 C.2       7 UNK         0.5013 
     48 O          25.9382   30.7515    5.0121 O.2       7 UNK        -0.5193 
     49 N          27.6745   30.5777    3.5623 N.am      8 UNK        -0.4253 
     50 CA         28.0457   31.9896    3.4629 C.3       8 UNK         0.0242 
     51 CB         28.0796   32.3850    1.9747 C.3       8 UNK        -0.2000 
     52 C          29.3965   32.2499    4.1592 C.2       8 UNK         0.4948 
     53 O          30.1299   33.1529    3.7500 O.2       8 UNK        -0.5275 
     54 N          29.7159   31.4487    5.1880 N.am      9 UNK        -0.4246 
     55 CA         30.9604   31.4008    5.9639 C.3       9 UNK         0.0261 
     56 CB         31.2826   32.7411    6.6564 C.3       9 UNK        -0.1959 
     57 C          32.1421   30.8639    5.1428 C.2       9 UNK         0.5033 
     58 O          32.6425   29.7866    5.4640 O.2       9 UNK        -0.5390 
     59 N          32.5392   31.6049    4.0977 N.am      10 UNK        -0.4215 
     60 CA         33.5622   31.2868    3.0928 C.3       10 UNK         0.0240 
     61 CB         32.9469   30.3716    2.0107 C.3       10 UNK        -0.1982 
     62 C          34.8689   30.7305    3.6988 C.2       10 UNK         0.4970 
     63 O          35.6326   31.4908    4.2953 O.2       10 UNK        -0.4916 
     64 N          35.0886   29.4221    3.5312 N.am      11 UNK        -0.4279 
     65 CA         36.2020   28.6354    4.0750 C.3       11 UNK         0.1003 
     66 C          36.1902   28.4236    5.6181 C.2       11 UNK         0.5709 
     67 N          35.1195   28.7363    6.3369 N.am      11 UNK        -0.7358 
     68 O          37.1886   27.9768    6.1784 O.2       11 UNK        -0.4999 
     69 C69        36.3525   27.2943    3.3047 C.3       12 UNK        -0.0954 
     70 S70        34.7988   26.3385    3.1767 S.3       12 UNK        -0.2268 
     71 C71        35.3608   24.9377    2.1651 C.3       12 UNK         0.0203 
     72 H72        27.6613   25.1538    5.7601 H         1 UNK         0.0888 
     73 H73        26.0441   25.3470    5.0832 H         1 UNK         0.0888 
     74 H74        26.5272   23.8039    5.7898 H         1 UNK         0.0888 
     75 H75        26.8165   22.3117    4.1723 H         1 UNK         0.3017 
     76 H76        27.4941   21.2069    2.4269 H         1 UNK         0.0873 
     77 H77        29.4427   21.7672    1.1020 H         1 UNK         0.0745 
     78 H78        29.4891   23.4117    1.6975 H         1 UNK         0.0745 
     79 H79        32.5018   20.8663    3.1135 H         1 UNK         0.0705 
     80 H80        31.5246   20.5309    1.7098 H         1 UNK         0.0705 
     81 H81        33.9178   22.8692    3.2219 H         1 UNK         0.1334 
     82 H82        34.1629   25.4036   -0.2341 H         1 UNK         0.1417 
     83 H83        31.2152   22.3085   -0.0617 H         1 UNK         0.1562 
     84 H84        31.2136   23.7093   -1.9172 H         1 UNK         0.0748 
     85 H85        32.7886   24.2947   -2.3847 H         1 UNK         0.0748 
     86 H86        31.2916   25.8497    0.8099 H         1 UNK         0.0940 
     87 H87        29.6930   25.6512    0.1208 H         1 UNK         0.0940 
     88 H88        31.2221   28.3022    0.1265 H         1 UNK         0.0703 
     89 H89        28.3120   27.7886   -0.2888 H         1 UNK         0.3081 
     90 H90        27.7927   30.7022   -1.9576 H         1 UNK         0.0719 
     91 H91        28.5633   28.3827   -3.8113 H         1 UNK         0.0809 
     92 H92        27.4599   29.6982   -4.2194 H         1 UNK         0.0809 
     93 H93        29.1566   30.0333   -3.9234 H         1 UNK         0.0809 
     94 H94        26.7081   27.9759   -2.2377 H         1 UNK         0.2990 
     95 H95        24.4998   28.2979    0.4933 H         1 UNK         0.0690 
     96 H96        22.7255   27.9073   -1.1740 H         1 UNK         0.0788 
     97 H97        23.8012   28.3938   -2.4854 H         1 UNK         0.0788 
     98 H98        23.2839   29.5670   -1.2826 H         1 UNK         0.0788 
     99 H99        24.5374   26.2424   -1.3494 H         1 UNK         0.2993 
    100 H100       25.2804   24.2020   -0.5537 H         1 UNK         0.0949 
    101 H101       27.1938   23.3267   -1.9448 H         1 UNK         0.0767 
    102 H102       26.6299   24.8610   -2.5821 H         1 UNK         0.0767 
    103 H103       28.1102   24.7990   -1.6339 H         1 UNK         0.0767 
    104 H104       27.4088   24.6284    1.3369 H         1 UNK         0.3013 
    105 H105       30.3968   26.1917    2.4668 H         1 UNK         0.3121 
    106 H106       31.0412   28.0907    4.4083 H         1 UNK         0.0774 
    107 H107       30.6919   26.1928    6.0177 H         1 UNK         0.0815 
    108 H108       30.0065   25.2318    4.7154 H         1 UNK         0.0815 
    109 H109       31.6843   25.7563    4.6380 H         1 UNK         0.0815 
    110 H110       27.8715   27.2379    3.2879 H         1 UNK         0.2987 
    111 H111       26.2631   28.2542    5.3936 H         1 UNK         0.0949 
    112 H112       25.8066   28.3340    2.3670 H         1 UNK         0.0806 
    113 H113       25.3990   26.9724    3.4054 H         1 UNK         0.0806 
    114 H114       24.5542   28.5040    3.5901 H         1 UNK         0.0806 
    115 H115       28.2885   29.9376    3.0595 H         1 UNK         0.3010 
    116 H116       27.3041   32.6143    3.9642 H         1 UNK         0.0829 
    117 H117       27.1202   32.1944    1.4935 H         1 UNK         0.0813 
    118 H118       28.2967   33.4467    1.8519 H         1 UNK         0.0813 
    119 H119       28.8423   31.8277    1.4287 H         1 UNK         0.0813 
    120 H120       29.0720   30.6957    5.4029 H         1 UNK         0.3038 
    121 H121       30.7769   30.6713    6.7548 H         1 UNK         0.0769 
    122 H122       31.4907   33.5415    5.9466 H         1 UNK         0.0811 
    123 H123       32.1613   32.6423    7.2950 H         1 UNK         0.0811 
    124 H124       30.4572   33.0648    7.2905 H         1 UNK         0.0811 
    125 H125       31.9944   32.4448    3.9223 H         1 UNK         0.3204 
    126 H126       33.8270   32.2303    2.6135 H         1 UNK         0.0748 
    127 H127       33.6649   30.1494    1.2199 H         1 UNK         0.0771 
    128 H128       32.6020   29.4254    2.4276 H         1 UNK         0.0771 
    129 H129       32.0886   30.8489    1.5366 H         1 UNK         0.0771 
    130 H130       34.3773   28.8773    3.0676 H         1 UNK         0.2980 
    131 H131       37.1076   29.2130    3.8809 H         1 UNK         0.0545 
    132 H132       34.2757   29.0998    5.8975 H         1 UNK         0.3459 
    133 H133       35.1399   28.5945    7.3333 H         1 UNK         0.3459 
    134 H134       36.6944   27.5066    2.2905 H         1 UNK         0.0616 
    135 H135       37.1253   26.6651    3.7503 H         1 UNK         0.0616 
    136 H136       36.0220   25.2975    1.3750 H         1 UNK         0.0634 
    137 H137       35.9552   24.2620    2.7822 H         1 UNK         0.0634 
@<TRIPOS>BOND
     1    1    2 1    
     2    1   72 1    
     3    1   73 1    
     4    1   74 1    
     5    2    3 2    
     6    2    4 am   BACKBONE|DICT|INTERRES
     7    4    5 1    
     8    4   75 1    
     9    5    6 1    
    10    5   35 1    
    11    5   76 1    
    12    6    7 1    
    13    6   77 1    
    14    6   78 1    
    15    7    8 1    
    16    8    9 1    
    17    8   79 1    
    18    8   80 1    
    19    9   10 ar   
    20    9   14 ar   
    21   10   11 ar   
    22   10   81 1    
    23   11   12 ar   
    24   11   71 1    
    25   12   13 ar   
    26   12   82 1    
    27   13   14 ar   
    28   13   15 1    
    29   14   83 1    
    30   15   16 1    
    31   15   84 1    
    32   15   85 1    
    33   16   17 1    
    34   17   18 1    
    35   17   86 1    
    36   17   87 1    
    37   18   19 1    
    38   18   37 1    
    39   18   88 1    
    40   19   20 am   BACKBONE|DICT|INTERRES
    41   19   89 1    
    42   20   21 2    
    43   20   22 1    
    44   22   23 1    
    45   22   24 1    
    46   22   90 1    
    47   23   91 1    
    48   23   92 1    
    49   23   93 1    
    50   24   25 am   BACKBONE|DICT|INTERRES
    51   24   94 1    
    52   25   26 2    
    53   25   27 1    
    54   27   28 1    
    55   27   29 1    
    56   27   95 1    
    57   28   96 1    
    58   28   97 1    
    59   28   98 1    
    60   29   30 am   BACKBONE|DICT|INTERRES
    61   29   99 1    
    62   30   31 2    
    63   30   32 1    
    64   32   33 1    
    65   32   34 1    
    66   32  100 1    
    67   33  101 1    
    68   33  102 1    
    69   33  103 1    
    70   34   35 am   BACKBONE|DICT|INTERRES
    71   34  104 1    
    72   35   36 2    
    73   37   38 2    
    74   37   39 am   BACKBONE|DICT|INTERRES
    75   39   40 1    
    76   39  105 1    
    77   40   41 1    
    78   40   42 1    
    79   40  106 1    
    80   41  107 1    
    81   41  108 1    
    82   41  109 1    
    83   42   43 2    
    84   42   44 am   BACKBONE|DICT|INTERRES
    85   44   45 1    
    86   44  110 1    
    87   45   46 1    
    88   45   47 1    
    89   45  111 1    
    90   46  112 1    
    91   46  113 1    
    92   46  114 1    
    93   47   48 2    
    94   47   49 am   BACKBONE|DICT|INTERRES
    95   49   50 1    
    96   49  115 1    
    97   50   51 1    
    98   50   52 1    
    99   50  116 1    
   100   51  117 1    
   101   51  118 1    
   102   51  119 1    
   103   52   53 2    
   104   52   54 am   BACKBONE|DICT|INTERRES
   105   54   55 1    
   106   54  120 1    
   107   55   56 1    
   108   55   57 1    
   109   55  121 1    
   110   56  122 1    
   111   56  123 1    
   112   56  124 1    
   113   57   58 2    
   114   57   59 am   BACKBONE|DICT|INTERRES
   115   59   60 1    
   116   59  125 1    
   117   60   61 1    
   118   60   62 1    
   119   60  126 1    
   120   61  127 1    
   121   61  128 1    
   122   61  129 1    
   123   62   63 2    
   124   62   64 am   BACKBONE|DICT|INTERRES
   125   64   65 1    
   126   64  130 1    
   127   65   66 1    
   128   65   69 1    
   129   65  131 1    
   130   66   67 am   BACKBONE|DICT|INTERRES
   131   66   68 2    
   132   67  132 1    
   133   67  133 1    
   134   69   70 1    
   135   69  134 1    
   136   69  135 1    
   137   70   71 1    
   138   71  136 1    
   139   71  137 1    
@<TRIPOS>SUBSTRUCTURE
     1 UNK         1 GROUP             0       ****    0 ROOT    
