@<TRIPOS>MOLECULE
3R136
137   139    1
SMALL
USER_CHARGES


@<TRIPOS>ATOM
      1 CA         29.9735   24.8067    3.2426 C.3       0 UNK        -0.1979 
      2 C          29.4934   23.4438    2.7782 C.2       0 UNK         0.4864 
      3 O          28.6365   22.8396    3.4241 O.2       0 UNK        -0.5359 
      4 N          30.0271   22.9539    1.6520 N.am      1 UNK        -0.4318 
      5 CA         29.7826   21.6153    1.0941 C.3       1 UNK         0.0824 
      6 C6         30.9538   21.1442    0.1908 C.3       12 UNK        -0.0944 
      7 S7         32.5809   21.2404    1.0168 S.3       12 UNK        -0.2672 
      8 C8         33.4944   22.3846   -0.0674 C.3       12 UNK         0.0333 
      9 C9         33.0409   23.8297    0.0941 C.ar      12 UNK        -0.0807 
     10 C10        33.5928   24.6311    1.0996 C.ar      12 UNK        -0.0894 
     11 C11        33.2202   25.9736    1.2229 C.ar      12 UNK        -0.0804 
     12 C12        32.2695   26.5036    0.3484 C.ar      12 UNK        -0.0824 
     13 C13        31.7121   25.7159   -0.6621 C.ar      12 UNK        -0.0762 
     14 C14        32.1065   24.3811   -0.7888 C.ar      12 UNK        -0.0782 
     15 C15        30.7086   26.3142   -1.6379 C.3       12 UNK         0.0230 
     16 S16        29.0127   25.7492   -1.3059 S.3       12 UNK        -0.2608 
     17 C17        28.6688   26.5303    0.3019 C.3       12 UNK        -0.0989 
     18 CA         27.7166   27.7478    0.2012 C.3       5 UNK         0.0716 
     19 N          26.8809   27.8299    1.3988 N.am      5 UNK        -0.4135 
     20 C          25.7662   28.5507    1.5538 C.2       4 UNK         0.5031 
     21 O          25.2860   29.2774    0.6823 O.2       4 UNK        -0.5229 
     22 CA         25.0440   28.3617    2.9039 C.3       4 UNK         0.0329 
     23 CB         23.9307   29.4011    3.1300 C.3       4 UNK        -0.2001 
     24 N          24.4698   27.0145    2.9990 N.am      4 UNK        -0.4303 
     25 C          25.1694   25.8866    3.1884 C.2       3 UNK         0.5044 
     26 O          26.3798   25.8731    3.4216 O.2       3 UNK        -0.5152 
     27 CA         24.4389   24.5483    3.0092 C.3       3 UNK         0.0319 
     28 CB         22.9323   24.6743    2.6849 C.3       3 UNK        -0.2001 
     29 N          25.1407   23.8441    1.9405 N.am      3 UNK        -0.4354 
     30 C          25.0875   22.5373    1.6668 C.2       2 UNK         0.4964 
     31 O          24.4065   21.7217    2.2885 O.2       2 UNK        -0.5047 
     32 CA         25.9811   22.0665    0.5154 C.3       2 UNK         0.0288 
     33 CB         25.8145   22.9364   -0.7515 C.3       2 UNK        -0.2113 
     34 N          27.3636   22.0710    0.9838 N.am      2 UNK        -0.4145 
     35 C          28.4107   21.4962    0.3823 C.2       1 UNK         0.5006 
     36 O          28.3228   20.8886   -0.6872 O.2       1 UNK        -0.5103 
     37 C          28.4607   29.0744   -0.0752 C.2       5 UNK         0.5055 
     38 O          28.6078   29.4602   -1.2349 O.2       5 UNK        -0.5220 
     39 N          28.8652   29.7642    1.0033 N.am      6 UNK        -0.4450 
     40 CA         29.3023   31.1658    1.0711 C.3       6 UNK         0.0367 
     41 CB         28.1267   32.1015    0.7180 C.3       6 UNK        -0.1929 
     42 C          30.5857   31.5341    0.2974 C.2       6 UNK         0.5070 
     43 O          30.8427   32.7234    0.1048 O.2       6 UNK        -0.5237 
     44 N          31.4017   30.5450   -0.0974 N.am      7 UNK        -0.4739 
     45 CA         32.7099   30.7763   -0.7352 C.3       7 UNK         0.0276 
     46 CB         33.1663   29.5134   -1.4833 C.3       7 UNK        -0.1927 
     47 C          33.7971   31.2409    0.2560 C.2       7 UNK         0.5013 
     48 O          34.8317   31.7514   -0.1748 O.2       7 UNK        -0.5193 
     49 N          33.5396   31.0638    1.5551 N.am      8 UNK        -0.4253 
     50 CA         34.3191   31.5611    2.6808 C.3       8 UNK         0.0242 
     51 CB         35.2833   30.4655    3.1679 C.3       8 UNK        -0.2000 
     52 C          33.3185   31.9354    3.7787 C.2       8 UNK         0.4948 
     53 O          32.2029   31.4071    3.7795 O.2       8 UNK        -0.5275 
     54 N          33.7333   32.7993    4.7150 N.am      9 UNK        -0.4246 
     55 CA         32.9027   33.2853    5.8269 C.3       9 UNK         0.0261 
     56 CB         33.6802   34.3433    6.6266 C.3       9 UNK        -0.1959 
     57 C          32.3887   32.1727    6.7598 C.2       9 UNK         0.5033 
     58 O          31.2584   32.2578    7.2414 O.2       9 UNK        -0.5390 
     59 N          33.2072   31.1305    6.9595 N.am      10 UNK        -0.4215 
     60 CA         32.8550   29.9201    7.7082 C.3       10 UNK         0.0240 
     61 CB         34.1433   29.1475    8.0375 C.3       10 UNK        -0.1982 
     62 C          31.8569   29.0040    6.9717 C.2       10 UNK         0.4970 
     63 O          31.2481   28.1492    7.6162 O.2       10 UNK        -0.4916 
     64 N          31.7160   29.1859    5.6534 N.am      11 UNK        -0.4279 
     65 CA         30.8329   28.4166    4.7674 C.3       11 UNK         0.1003 
     66 C          29.5014   29.1534    4.4474 C.2       11 UNK         0.5709 
     67 N          29.1988   30.2939    5.0562 N.am      11 UNK        -0.7358 
     68 O          28.7229   28.6813    3.6226 O.2       11 UNK        -0.4999 
     69 C69        31.5827   27.9905    3.4764 C.3       12 UNK        -0.0954 
     70 S70        32.9714   26.8650    3.8425 S.3       12 UNK        -0.2268 
     71 C71        33.8777   26.8645    2.2675 C.3       12 UNK         0.0203 
     72 H72        29.1417   25.5084    3.2974 H         1 UNK         0.0888 
     73 H73        30.4223   24.7311    4.2325 H         1 UNK         0.0888 
     74 H74        30.7229   25.2076    2.5630 H         1 UNK         0.0888 
     75 H75        30.7230   23.4970    1.1589 H         1 UNK         0.3017 
     76 H76        29.7356   20.9189    1.9343 H         1 UNK         0.0873 
     77 H77        30.9740   21.7138   -0.7387 H         1 UNK         0.0745 
     78 H78        30.8054   20.1034   -0.1035 H         1 UNK         0.0745 
     79 H79        34.5571   22.3107    0.1683 H         1 UNK         0.0705 
     80 H80        33.3961   22.0629   -1.1055 H         1 UNK         0.0705 
     81 H81        34.3285   24.2145    1.7742 H         1 UNK         0.1334 
     82 H82        31.9744   27.5368    0.4496 H         1 UNK         0.1417 
     83 H83        31.6887   23.7781   -1.5836 H         1 UNK         0.1562 
     84 H84        30.9815   26.0303   -2.6553 H         1 UNK         0.0748 
     85 H85        30.7344   27.4041   -1.6103 H         1 UNK         0.0748 
     86 H86        29.5871   26.7826    0.8300 H         1 UNK         0.0940 
     87 H87        28.2058   25.7440    0.9003 H         1 UNK         0.0940 
     88 H88        27.0319   27.5858   -0.6344 H         1 UNK         0.0703 
     89 H89        27.1607   27.2592    2.1911 H         1 UNK         0.3081 
     90 H90        25.7852   28.4878    3.6967 H         1 UNK         0.0719 
     91 H91        24.3285   30.4153    3.0729 H         1 UNK         0.0809 
     92 H92        23.1396   29.3186    2.3836 H         1 UNK         0.0809 
     93 H93        23.4766   29.2876    4.1145 H         1 UNK         0.0809 
     94 H94        23.4884   26.9308    2.7766 H         1 UNK         0.2990 
     95 H95        24.5577   23.9891    3.9393 H         1 UNK         0.0690 
     96 H96        22.4621   23.6933    2.6155 H         1 UNK         0.0788 
     97 H97        22.7586   25.1857    1.7372 H         1 UNK         0.0788 
     98 H98        22.4017   25.2186    3.4674 H         1 UNK         0.0788 
     99 H99        25.7749   24.4186    1.4030 H         1 UNK         0.2993 
    100 H100       25.6964   21.0398    0.2754 H         1 UNK         0.0949 
    101 H101       26.3056   22.4801   -1.6110 H         1 UNK         0.0767 
    102 H102       24.7615   23.0528   -1.0119 H         1 UNK         0.0767 
    103 H103       26.2376   23.9339   -0.6269 H         1 UNK         0.0767 
    104 H104       27.5280   22.4805    1.9016 H         1 UNK         0.3013 
    105 H105       28.7140   29.3260    1.9111 H         1 UNK         0.3121 
    106 H106       29.5470   31.3409    2.1201 H         1 UNK         0.0774 
    107 H107       28.3755   33.1443    0.9186 H         1 UNK         0.0815 
    108 H108       27.8572   32.0279   -0.3360 H         1 UNK         0.0815 
    109 H109       27.2405   31.8647    1.3070 H         1 UNK         0.0815 
    110 H110       31.1096   29.5923    0.0531 H         1 UNK         0.2987 
    111 H111       32.5888   31.5717   -1.4743 H         1 UNK         0.0949 
    112 H112       33.4724   28.7221   -0.8011 H         1 UNK         0.0806 
    113 H113       32.3858   29.1271   -2.1383 H         1 UNK         0.0806 
    114 H114       34.0298   29.7350   -2.1119 H         1 UNK         0.0806 
    115 H115       32.6267   30.7188    1.8220 H         1 UNK         0.3010 
    116 H116       34.8759   32.4528    2.3848 H         1 UNK         0.0829 
    117 H117       35.9426   30.1331    2.3658 H         1 UNK         0.0813 
    118 H118       35.9173   30.8314    3.9762 H         1 UNK         0.0813 
    119 H119       34.7474   29.5926    3.5431 H         1 UNK         0.0813 
    120 H120       34.6669   33.1802    4.6475 H         1 UNK         0.3038 
    121 H121       32.0257   33.7673    5.3893 H         1 UNK         0.0769 
    122 H122       34.5925   33.9335    7.0619 H         1 UNK         0.0811 
    123 H123       33.0756   34.7345    7.4463 H         1 UNK         0.0811 
    124 H124       33.9574   35.1910    5.9998 H         1 UNK         0.0811 
    125 H125       34.1199   31.1513    6.5283 H         1 UNK         0.3204 
    126 H126       32.3871   30.2232    8.6473 H         1 UNK         0.0748 
    127 H127       34.8360   29.7574    8.6178 H         1 UNK         0.0771 
    128 H128       33.9247   28.2577    8.6299 H         1 UNK         0.0771 
    129 H129       34.6586   28.8177    7.1341 H         1 UNK         0.0771 
    130 H130       32.1865   29.9626    5.2047 H         1 UNK         0.2980 
    131 H131       30.5254   27.5015    5.2763 H         1 UNK         0.0545 
    132 H132       29.8367   30.7072    5.7192 H         1 UNK         0.3459 
    133 H133       28.3289   30.7524    4.8413 H         1 UNK         0.3459 
    134 H134       31.9617   28.8655    2.9479 H         1 UNK         0.0616 
    135 H135       30.9111   27.4853    2.7841 H         1 UNK         0.0616 
    136 H136       33.9710   27.8851    1.8934 H         1 UNK         0.0634 
    137 H137       34.8955   26.5195    2.4552 H         1 UNK         0.0634 
@<TRIPOS>BOND
     1    1    2 1    
     2    1   72 1    
     3    1   73 1    
     4    1   74 1    
     5    2    3 2    
     6    2    4 am   BACKBONE|DICT|INTERRES
     7    4    5 1    
     8    4   75 1    
     9    5    6 1    
    10    5   35 1    
    11    5   76 1    
    12    6    7 1    
    13    6   77 1    
    14    6   78 1    
    15    7    8 1    
    16    8    9 1    
    17    8   79 1    
    18    8   80 1    
    19    9   10 ar   
    20    9   14 ar   
    21   10   11 ar   
    22   10   81 1    
    23   11   12 ar   
    24   11   71 1    
    25   12   13 ar   
    26   12   82 1    
    27   13   14 ar   
    28   13   15 1    
    29   14   83 1    
    30   15   16 1    
    31   15   84 1    
    32   15   85 1    
    33   16   17 1    
    34   17   18 1    
    35   17   86 1    
    36   17   87 1    
    37   18   19 1    
    38   18   37 1    
    39   18   88 1    
    40   19   20 am   BACKBONE|DICT|INTERRES
    41   19   89 1    
    42   20   21 2    
    43   20   22 1    
    44   22   23 1    
    45   22   24 1    
    46   22   90 1    
    47   23   91 1    
    48   23   92 1    
    49   23   93 1    
    50   24   25 am   BACKBONE|DICT|INTERRES
    51   24   94 1    
    52   25   26 2    
    53   25   27 1    
    54   27   28 1    
    55   27   29 1    
    56   27   95 1    
    57   28   96 1    
    58   28   97 1    
    59   28   98 1    
    60   29   30 am   BACKBONE|DICT|INTERRES
    61   29   99 1    
    62   30   31 2    
    63   30   32 1    
    64   32   33 1    
    65   32   34 1    
    66   32  100 1    
    67   33  101 1    
    68   33  102 1    
    69   33  103 1    
    70   34   35 am   BACKBONE|DICT|INTERRES
    71   34  104 1    
    72   35   36 2    
    73   37   38 2    
    74   37   39 am   BACKBONE|DICT|INTERRES
    75   39   40 1    
    76   39  105 1    
    77   40   41 1    
    78   40   42 1    
    79   40  106 1    
    80   41  107 1    
    81   41  108 1    
    82   41  109 1    
    83   42   43 2    
    84   42   44 am   BACKBONE|DICT|INTERRES
    85   44   45 1    
    86   44  110 1    
    87   45   46 1    
    88   45   47 1    
    89   45  111 1    
    90   46  112 1    
    91   46  113 1    
    92   46  114 1    
    93   47   48 2    
    94   47   49 am   BACKBONE|DICT|INTERRES
    95   49   50 1    
    96   49  115 1    
    97   50   51 1    
    98   50   52 1    
    99   50  116 1    
   100   51  117 1    
   101   51  118 1    
   102   51  119 1    
   103   52   53 2    
   104   52   54 am   BACKBONE|DICT|INTERRES
   105   54   55 1    
   106   54  120 1    
   107   55   56 1    
   108   55   57 1    
   109   55  121 1    
   110   56  122 1    
   111   56  123 1    
   112   56  124 1    
   113   57   58 2    
   114   57   59 am   BACKBONE|DICT|INTERRES
   115   59   60 1    
   116   59  125 1    
   117   60   61 1    
   118   60   62 1    
   119   60  126 1    
   120   61  127 1    
   121   61  128 1    
   122   61  129 1    
   123   62   63 2    
   124   62   64 am   BACKBONE|DICT|INTERRES
   125   64   65 1    
   126   64  130 1    
   127   65   66 1    
   128   65   69 1    
   129   65  131 1    
   130   66   67 am   BACKBONE|DICT|INTERRES
   131   66   68 2    
   132   67  132 1    
   133   67  133 1    
   134   69   70 1    
   135   69  134 1    
   136   69  135 1    
   137   70   71 1    
   138   71  136 1    
   139   71  137 1    
@<TRIPOS>SUBSTRUCTURE
     1 UNK         1 GROUP             0       ****    0 ROOT    
