@<TRIPOS>MOLECULE
3R136
137   139    1
SMALL
USER_CHARGES


@<TRIPOS>ATOM
      1 CA         24.2144   22.1196    0.8068 C.3       0 UNK        -0.1979 
      2 C          25.5297   21.7432    1.4719 C.2       0 UNK         0.4864 
      3 O          25.5745   20.7807    2.2374 O.2       0 UNK        -0.5359 
      4 N          26.5911   22.5145    1.2024 N.am      1 UNK        -0.4318 
      5 CA         27.9570   22.3705    1.7272 C.3       1 UNK         0.0824 
      6 C6         28.5745   20.9595    1.5158 C.3       12 UNK        -0.0944 
      7 S7         30.4014   20.9416    1.4269 S.3       12 UNK        -0.2672 
      8 C8         30.7224   21.5453   -0.2684 C.3       12 UNK         0.0333 
      9 C9         31.3065   22.9588   -0.3670 C.ar      12 UNK        -0.0807 
     10 C10        31.1530   23.9211    0.6414 C.ar      12 UNK        -0.0894 
     11 C11        31.6511   25.2167    0.4796 C.ar      12 UNK        -0.0804 
     12 C12        32.3615   25.5408   -0.6790 C.ar      12 UNK        -0.0824 
     13 C13        32.5298   24.5944   -1.6950 C.ar      12 UNK        -0.0762 
     14 C14        31.9915   23.3135   -1.5344 C.ar      12 UNK        -0.0782 
     15 C15        33.3045   24.9371   -2.9614 C.3       12 UNK         0.0230 
     16 S16        32.2729   25.7969   -4.1962 S.3       12 UNK        -0.2608 
     17 C17        32.3824   27.5277   -3.6218 C.3       12 UNK        -0.0989 
     18 CA         31.0158   28.1991   -3.3177 C.3       5 UNK         0.0716 
     19 N          30.0817   27.3173   -2.6000 N.am      5 UNK        -0.4135 
     20 C          28.7929   27.5932   -2.3463 C.2       4 UNK         0.5031 
     21 O          28.2308   28.6336   -2.6890 O.2       4 UNK        -0.5229 
     22 CA         28.0012   26.5529   -1.5493 C.3       4 UNK         0.0329 
     23 CB         28.5143   25.1078   -1.7507 C.3       4 UNK        -0.2001 
     24 N          28.0065   26.9595   -0.1419 N.am      4 UNK        -0.4303 
     25 C          27.2632   26.4058    0.8193 C.2       3 UNK         0.5044 
     26 O          26.5267   25.4270    0.6457 O.2       3 UNK        -0.5152 
     27 CA         27.3341   27.0554    2.2101 C.3       3 UNK         0.0319 
     28 CB         26.3906   28.2650    2.2969 C.3       3 UNK        -0.2001 
     29 N          26.9027   26.0394    3.1577 N.am      3 UNK        -0.4354 
     30 C          27.4772   25.7184    4.3216 C.2       2 UNK         0.4964 
     31 O          28.3319   26.3939    4.8898 O.2       2 UNK        -0.5047 
     32 CA         27.0736   24.3446    4.8902 C.3       2 UNK         0.0288 
     33 CB         25.7064   24.4125    5.5900 C.3       2 UNK        -0.2113 
     34 N          27.0351   23.3503    3.8106 N.am      2 UNK        -0.4145 
     35 C          28.1322   22.9338    3.1587 C.2       1 UNK         0.5006 
     36 O          29.2653   23.0820    3.6170 O.2       1 UNK        -0.5103 
     37 C          31.2590   29.5297   -2.5723 C.2       5 UNK         0.5055 
     38 O          31.5313   30.5497   -3.2071 O.2       5 UNK        -0.5220 
     39 N          31.1599   29.4756   -1.2405 N.am      6 UNK        -0.4450 
     40 CA         31.2065   30.5955   -0.3146 C.3       6 UNK         0.0367 
     41 CB         32.5525   30.5712    0.4301 C.3       6 UNK        -0.1929 
     42 C          30.0386   30.4382    0.6667 C.2       6 UNK         0.5070 
     43 O          29.4887   29.3378    0.7987 O.2       6 UNK        -0.5237 
     44 N          29.6998   31.5392    1.3467 N.am      7 UNK        -0.4739 
     45 CA         28.7322   31.5767    2.4443 C.3       7 UNK         0.0276 
     46 CB         28.3821   33.0424    2.7482 C.3       7 UNK        -0.1927 
     47 C          29.2976   30.8974    3.7006 C.2       7 UNK         0.5013 
     48 O          30.5168   30.8831    3.8858 O.2       7 UNK        -0.5193 
     49 N          28.4081   30.3999    4.5698 N.am      8 UNK        -0.4253 
     50 CA         28.7447   29.6475    5.7865 C.3       8 UNK         0.0242 
     51 CB         27.4504   29.2266    6.5013 C.3       8 UNK        -0.2000 
     52 C          29.6827   30.3796    6.7622 C.2       8 UNK         0.4948 
     53 O          30.5207   29.7339    7.3914 O.2       8 UNK        -0.5275 
     54 N          29.5606   31.7125    6.8334 N.am      9 UNK        -0.4246 
     55 CA         30.4287   32.5906    7.6229 C.3       9 UNK         0.0261 
     56 CB         29.8331   34.0080    7.6354 C.3       9 UNK        -0.1959 
     57 C          31.8906   32.6268    7.1353 C.2       9 UNK         0.5033 
     58 O          32.7791   32.9040    7.9425 O.2       9 UNK        -0.5390 
     59 N          32.1152   32.3546    5.8426 N.am      10 UNK        -0.4215 
     60 CA         33.4389   32.2632    5.2279 C.3       10 UNK         0.0240 
     61 CB         33.4018   32.9249    3.8404 C.3       10 UNK        -0.1982 
     62 C          33.9008   30.8021    5.1235 C.2       10 UNK         0.4970 
     63 O          35.0698   30.5233    5.3926 O.2       10 UNK        -0.4916 
     64 N          32.9874   29.9036    4.7307 N.am      11 UNK        -0.4279 
     65 CA         33.2377   28.4643    4.5755 C.3       11 UNK         0.1003 
     66 C          33.5190   27.7169    5.9104 C.2       11 UNK         0.5709 
     67 N          32.9060   28.1031    7.0232 N.am      11 UNK        -0.7358 
     68 O          34.3210   26.7867    5.9419 O.2       11 UNK        -0.4999 
     69 C69        32.1059   27.7832    3.7590 C.3       12 UNK        -0.0954 
     70 S70        32.7114   26.3857    2.7563 S.3       12 UNK        -0.2268 
     71 C71        31.3763   26.2783    1.5333 C.3       12 UNK         0.0203 
     72 H72        23.8778   21.3110    0.1585 H         1 UNK         0.0888 
     73 H73        23.4474   22.2942    1.5608 H         1 UNK         0.0888 
     74 H74        24.3075   23.0226    0.2030 H         1 UNK         0.0888 
     75 H75        26.4550   23.3447    0.6323 H         1 UNK         0.3017 
     76 H76        28.5144   23.0578    1.0923 H         1 UNK         0.0873 
     77 H77        28.2623   20.2836    2.3138 H         1 UNK         0.0745 
     78 H78        28.1948   20.5165    0.5938 H         1 UNK         0.0745 
     79 H79        29.8058   21.5058   -0.8581 H         1 UNK         0.0705 
     80 H80        31.4133   20.8415   -0.7351 H         1 UNK         0.0705 
     81 H81        30.6307   23.6817    1.5536 H         1 UNK         0.1334 
     82 H82        32.7741   26.5334   -0.7858 H         1 UNK         0.1417 
     83 H83        32.1114   22.5842   -2.3246 H         1 UNK         0.1562 
     84 H84        33.6900   24.0234   -3.4167 H         1 UNK         0.0748 
     85 H85        34.1837   25.5356   -2.7181 H         1 UNK         0.0748 
     86 H86        32.8984   28.0967   -4.3979 H         1 UNK         0.0940 
     87 H87        33.0430   27.5753   -2.7555 H         1 UNK         0.0940 
     88 H88        30.5434   28.4445   -4.2713 H         1 UNK         0.0703 
     89 H89        30.4508   26.4191   -2.3213 H         1 UNK         0.3081 
     90 H90        26.9712   26.5972   -1.9095 H         1 UNK         0.0719 
     91 H91        28.6258   24.8721   -2.8100 H         1 UNK         0.0809 
     92 H92        27.8229   24.3723   -1.3415 H         1 UNK         0.0809 
     93 H93        29.4776   24.9502   -1.2750 H         1 UNK         0.0809 
     94 H94        28.5369   27.7998    0.0829 H         1 UNK         0.2990 
     95 H95        28.3616   27.3624    2.4175 H         1 UNK         0.0690 
     96 H96        26.4049   28.7053    3.2929 H         1 UNK         0.0788 
     97 H97        25.3600   27.9888    2.0701 H         1 UNK         0.0788 
     98 H98        26.6841   29.0389    1.5874 H         1 UNK         0.0788 
     99 H99        26.2494   25.3845    2.7485 H         1 UNK         0.2993 
    100 H100       27.8260   24.0441    5.6230 H         1 UNK         0.0949 
    101 H101       24.9092   24.7022    4.9042 H         1 UNK         0.0767 
    102 H102       25.4389   23.4506    6.0280 H         1 UNK         0.0767 
    103 H103       25.7218   25.1436    6.3996 H         1 UNK         0.0767 
    104 H104       26.1354   23.1427    3.4031 H         1 UNK         0.3013 
    105 H105       30.8386   28.6151   -0.8208 H         1 UNK         0.3121 
    106 H106       31.0922   31.5400   -0.8510 H         1 UNK         0.0774 
    107 H107       32.6416   31.4214    1.1053 H         1 UNK         0.0815 
    108 H108       33.3903   30.6236   -0.2653 H         1 UNK         0.0815 
    109 H109       32.6699   29.6659    1.0273 H         1 UNK         0.0815 
    110 H110       30.2303   32.3839    1.1920 H         1 UNK         0.2987 
    111 H111       27.8291   31.0506    2.1304 H         1 UNK         0.0949 
    112 H112       29.2555   33.6071    3.0780 H         1 UNK         0.0806 
    113 H113       27.9723   33.5420    1.8701 H         1 UNK         0.0806 
    114 H114       27.6315   33.1135    3.5364 H         1 UNK         0.0806 
    115 H115       27.4248   30.4928    4.3617 H         1 UNK         0.3010 
    116 H116       29.2702   28.7463    5.4662 H         1 UNK         0.0829 
    117 H117       26.8241   28.6086    5.8578 H         1 UNK         0.0813 
    118 H118       27.6728   28.6358    7.3911 H         1 UNK         0.0813 
    119 H119       26.8625   30.0887    6.8187 H         1 UNK         0.0813 
    120 H120       28.8405   32.1562    6.2823 H         1 UNK         0.3038 
    121 H121       30.4379   32.2139    8.6480 H         1 UNK         0.0769 
    122 H122       29.7770   34.4321    6.6320 H         1 UNK         0.0811 
    123 H123       30.4427   34.6816    8.2396 H         1 UNK         0.0811 
    124 H124       28.8295   34.0142    8.0611 H         1 UNK         0.0811 
    125 H125       31.3325   32.0790    5.2587 H         1 UNK         0.3204 
    126 H126       34.1725   32.8003    5.8332 H         1 UNK         0.0748 
    127 H127       33.1835   33.9900    3.9192 H         1 UNK         0.0771 
    128 H128       34.3620   32.8270    3.3319 H         1 UNK         0.0771 
    129 H129       32.6422   32.4779    3.1995 H         1 UNK         0.0771 
    130 H130       32.0525   30.2237    4.4875 H         1 UNK         0.2980 
    131 H131       34.1554   28.3955    3.9876 H         1 UNK         0.0545 
    132 H132       32.1935   28.8264    7.0142 H         1 UNK         0.3459 
    133 H133       33.1061   27.6179    7.8825 H         1 UNK         0.3459 
    134 H134       31.2885   27.4472    4.4005 H         1 UNK         0.0616 
    135 H135       31.6612   28.5028    3.0696 H         1 UNK         0.0616 
    136 H136       31.2478   27.2485    1.0525 H         1 UNK         0.0634 
    137 H137       30.4391   26.0626    2.0492 H         1 UNK         0.0634 
@<TRIPOS>BOND
     1    1    2 1    
     2    1   72 1    
     3    1   73 1    
     4    1   74 1    
     5    2    3 2    
     6    2    4 am   BACKBONE|DICT|INTERRES
     7    4    5 1    
     8    4   75 1    
     9    5    6 1    
    10    5   35 1    
    11    5   76 1    
    12    6    7 1    
    13    6   77 1    
    14    6   78 1    
    15    7    8 1    
    16    8    9 1    
    17    8   79 1    
    18    8   80 1    
    19    9   10 ar   
    20    9   14 ar   
    21   10   11 ar   
    22   10   81 1    
    23   11   12 ar   
    24   11   71 1    
    25   12   13 ar   
    26   12   82 1    
    27   13   14 ar   
    28   13   15 1    
    29   14   83 1    
    30   15   16 1    
    31   15   84 1    
    32   15   85 1    
    33   16   17 1    
    34   17   18 1    
    35   17   86 1    
    36   17   87 1    
    37   18   19 1    
    38   18   37 1    
    39   18   88 1    
    40   19   20 am   BACKBONE|DICT|INTERRES
    41   19   89 1    
    42   20   21 2    
    43   20   22 1    
    44   22   23 1    
    45   22   24 1    
    46   22   90 1    
    47   23   91 1    
    48   23   92 1    
    49   23   93 1    
    50   24   25 am   BACKBONE|DICT|INTERRES
    51   24   94 1    
    52   25   26 2    
    53   25   27 1    
    54   27   28 1    
    55   27   29 1    
    56   27   95 1    
    57   28   96 1    
    58   28   97 1    
    59   28   98 1    
    60   29   30 am   BACKBONE|DICT|INTERRES
    61   29   99 1    
    62   30   31 2    
    63   30   32 1    
    64   32   33 1    
    65   32   34 1    
    66   32  100 1    
    67   33  101 1    
    68   33  102 1    
    69   33  103 1    
    70   34   35 am   BACKBONE|DICT|INTERRES
    71   34  104 1    
    72   35   36 2    
    73   37   38 2    
    74   37   39 am   BACKBONE|DICT|INTERRES
    75   39   40 1    
    76   39  105 1    
    77   40   41 1    
    78   40   42 1    
    79   40  106 1    
    80   41  107 1    
    81   41  108 1    
    82   41  109 1    
    83   42   43 2    
    84   42   44 am   BACKBONE|DICT|INTERRES
    85   44   45 1    
    86   44  110 1    
    87   45   46 1    
    88   45   47 1    
    89   45  111 1    
    90   46  112 1    
    91   46  113 1    
    92   46  114 1    
    93   47   48 2    
    94   47   49 am   BACKBONE|DICT|INTERRES
    95   49   50 1    
    96   49  115 1    
    97   50   51 1    
    98   50   52 1    
    99   50  116 1    
   100   51  117 1    
   101   51  118 1    
   102   51  119 1    
   103   52   53 2    
   104   52   54 am   BACKBONE|DICT|INTERRES
   105   54   55 1    
   106   54  120 1    
   107   55   56 1    
   108   55   57 1    
   109   55  121 1    
   110   56  122 1    
   111   56  123 1    
   112   56  124 1    
   113   57   58 2    
   114   57   59 am   BACKBONE|DICT|INTERRES
   115   59   60 1    
   116   59  125 1    
   117   60   61 1    
   118   60   62 1    
   119   60  126 1    
   120   61  127 1    
   121   61  128 1    
   122   61  129 1    
   123   62   63 2    
   124   62   64 am   BACKBONE|DICT|INTERRES
   125   64   65 1    
   126   64  130 1    
   127   65   66 1    
   128   65   69 1    
   129   65  131 1    
   130   66   67 am   BACKBONE|DICT|INTERRES
   131   66   68 2    
   132   67  132 1    
   133   67  133 1    
   134   69   70 1    
   135   69  134 1    
   136   69  135 1    
   137   70   71 1    
   138   71  136 1    
   139   71  137 1    
@<TRIPOS>SUBSTRUCTURE
     1 UNK         1 GROUP             0       ****    0 ROOT    
