@<TRIPOS>MOLECULE
3R136
137   139    1
SMALL
USER_CHARGES


@<TRIPOS>ATOM
      1 CA         34.3686   23.2517    1.0751 C.3       0 UNK        -0.1979 
      2 C          33.0616   24.0300    1.0747 C.2       0 UNK         0.4864 
      3 O          33.0688   25.2275    1.3548 O.2       0 UNK        -0.5359 
      4 N          31.9456   23.3561    0.7621 N.am      1 UNK        -0.4318 
      5 CA         30.5881   23.9194    0.7592 C.3       1 UNK         0.0824 
      6 C6         29.4974   22.8275    0.6053 C.3       12 UNK        -0.0944 
      7 S7         29.6686   21.4508    1.7897 S.3       12 UNK        -0.2672 
      8 C8         28.1843   21.6603    2.8319 C.3       12 UNK         0.0333 
      9 C9         28.2228   22.8588    3.7798 C.ar      12 UNK        -0.0807 
     10 C10        29.4204   23.3299    4.3307 C.ar      12 UNK        -0.0894 
     11 C11        29.4220   24.3943    5.2358 C.ar      12 UNK        -0.0804 
     12 C12        28.2096   24.9814    5.6127 C.ar      12 UNK        -0.0824 
     13 C13        27.0039   24.5235    5.0697 C.ar      12 UNK        -0.0762 
     14 C14        27.0202   23.4665    4.1543 C.ar      12 UNK        -0.0782 
     15 C15        25.6755   25.1443    5.4841 C.3       12 UNK         0.0230 
     16 S16        24.9793   26.2135    4.1815 S.3       12 UNK        -0.2608 
     17 C17        26.0700   27.6695    4.2780 C.3       12 UNK        -0.0989 
     18 CA         27.2595   27.6027    3.2819 C.3       5 UNK         0.0716 
     19 N          26.8516   27.8219    1.8962 N.am      5 UNK        -0.4135 
     20 C          26.6422   26.8834    0.9679 C.2       4 UNK         0.5031 
     21 O          26.6422   25.6717    1.1973 O.2       4 UNK        -0.5229 
     22 CA         26.3867   27.3776   -0.4678 C.3       4 UNK         0.0329 
     23 CB         26.9122   28.8028   -0.7511 C.3       4 UNK        -0.2001 
     24 N          27.0033   26.4393   -1.4010 N.am      4 UNK        -0.4303 
     25 C          26.5166   26.0836   -2.5962 C.2       3 UNK         0.5044 
     26 O          25.4688   26.5360   -3.0621 O.2       3 UNK        -0.5152 
     27 CA         27.3176   25.0343   -3.4024 C.3       3 UNK         0.0319 
     28 CB         27.0959   25.1539   -4.9260 C.3       3 UNK        -0.2001 
     29 N          28.7515   25.0007   -3.0805 N.am      3 UNK        -0.4354 
     30 C          29.6446   25.9932   -3.2287 C.2       2 UNK         0.4964 
     31 O          29.3899   27.0687   -3.7734 O.2       2 UNK        -0.5047 
     32 CA         31.0550   25.7455   -2.6446 C.3       2 UNK         0.0288 
     33 CB         31.7895   27.0641   -2.3217 C.3       2 UNK        -0.2113 
     34 N          31.0792   24.8552   -1.4706 N.am      2 UNK        -0.4145 
     35 C          30.3835   24.9943   -0.3279 C.2       1 UNK         0.5006 
     36 O          29.5698   25.8943   -0.1318 O.2       1 UNK        -0.5103 
     37 C          28.3211   28.6634    3.6199 C.2       5 UNK         0.5055 
     38 O          28.5326   29.5958    2.8354 O.2       5 UNK        -0.5220 
     39 N          28.9531   28.5151    4.7943 N.am      6 UNK        -0.4450 
     40 CA         30.0737   29.3121    5.3146 C.3       6 UNK         0.0367 
     41 CB         30.3722   28.8880    6.7617 C.3       6 UNK        -0.1929 
     42 C          29.9087   30.8402    5.2515 C.2       6 UNK         0.5070 
     43 O          30.9102   31.5367    5.0998 O.2       6 UNK        -0.5237 
     44 N          28.6646   31.3349    5.3159 N.am      7 UNK        -0.4739 
     45 CA         28.3111   32.7492    5.1441 C.3       7 UNK         0.0276 
     46 CB         26.7977   32.9179    5.3538 C.3       7 UNK        -0.1927 
     47 C          28.7356   33.3466    3.7862 C.2       7 UNK         0.5013 
     48 O          28.9752   34.5528    3.7155 O.2       7 UNK        -0.5193 
     49 N          28.8350   32.4997    2.7525 N.am      8 UNK        -0.4253 
     50 CA         29.3573   32.8461    1.4301 C.3       8 UNK         0.0242 
     51 CB         28.2753   32.5725    0.3719 C.3       8 UNK        -0.2000 
     52 C          30.6334   32.0540    1.1035 C.2       8 UNK         0.4948 
     53 O          31.5499   32.6126    0.5004 O.2       8 UNK        -0.5275 
     54 N          30.6688   30.7691    1.4819 N.am      9 UNK        -0.4246 
     55 CA         31.7152   29.8174    1.1046 C.3       9 UNK         0.0261 
     56 CB         31.1230   28.4018    1.1655 C.3       9 UNK        -0.1959 
     57 C          32.9790   29.8710    1.9752 C.2       9 UNK         0.5033 
     58 O          33.9848   29.2777    1.5838 O.2       9 UNK        -0.5390 
     59 N          32.9044   30.4944    3.1607 N.am      10 UNK        -0.4215 
     60 CA         33.9023   30.5185    4.2434 C.3       10 UNK         0.0240 
     61 CB         35.2409   31.1311    3.7850 C.3       10 UNK        -0.1982 
     62 C          34.1172   29.1616    4.9451 C.2       10 UNK         0.4970 
     63 O          34.2683   29.1484    6.1668 O.2       10 UNK        -0.4916 
     64 N          34.1258   28.0611    4.1802 N.am      11 UNK        -0.4279 
     65 CA         34.3466   26.6725    4.6247 C.3       11 UNK         0.1003 
     66 C          35.7758   26.3969    5.1896 C.2       11 UNK         0.5709 
     67 N          36.7691   27.2342    4.9127 N.am      11 UNK        -0.7358 
     68 O          36.0052   25.3920    5.8589 O.2       11 UNK        -0.4999 
     69 C69        33.2100   26.1382    5.5467 C.3       12 UNK        -0.0954 
     70 S70        31.6069   26.0022    4.6875 S.3       12 UNK        -0.2268 
     71 C71        30.7392   24.8753    5.8232 C.3       12 UNK         0.0203 
     72 H72        34.8291   23.2960    2.0618 H         1 UNK         0.0888 
     73 H73        34.2202   22.2033    0.8167 H         1 UNK         0.0888 
     74 H74        35.0627   23.6846    0.3551 H         1 UNK         0.0888 
     75 H75        32.0013   22.3658    0.5693 H         1 UNK         0.3017 
     76 H76        30.4410   24.4134    1.7227 H         1 UNK         0.0873 
     77 H77        28.5054   23.2723    0.7139 H         1 UNK         0.0745 
     78 H78        29.5248   22.3946   -0.3967 H         1 UNK         0.0745 
     79 H79        28.0613   20.7588    3.4334 H         1 UNK         0.0705 
     80 H80        27.3090   21.7167    2.1826 H         1 UNK         0.0705 
     81 H81        30.3604   22.8667    4.0650 H         1 UNK         0.1334 
     82 H82        28.2037   25.7846    6.3359 H         1 UNK         0.1417 
     83 H83        26.0862   23.1106    3.7406 H         1 UNK         0.1562 
     84 H84        25.7785   25.7092    6.4119 H         1 UNK         0.0748 
     85 H85        24.9616   24.3473    5.6971 H         1 UNK         0.0748 
     86 H86        26.4083   27.7627    5.3112 H         1 UNK         0.0940 
     87 H87        25.4674   28.5597    4.0876 H         1 UNK         0.0940 
     88 H88        27.7564   26.6336    3.3547 H         1 UNK         0.0703 
     89 H89        26.9206   28.7871    1.6035 H         1 UNK         0.3081 
     90 H90        25.3039   27.3691   -0.6077 H         1 UNK         0.0719 
     91 H91        27.9794   28.8882   -0.5401 H         1 UNK         0.0809 
     92 H92        26.7634   29.0746   -1.7963 H         1 UNK         0.0809 
     93 H93        26.3871   29.5507   -0.1562 H         1 UNK         0.0809 
     94 H94        27.8669   26.0213   -1.0627 H         1 UNK         0.2990 
     95 H95        26.9220   24.0658   -3.0931 H         1 UNK         0.0690 
     96 H96        27.6600   24.3966   -5.4703 H         1 UNK         0.0788 
     97 H97        27.3949   26.1321   -5.3036 H         1 UNK         0.0788 
     98 H98        26.0443   25.0167   -5.1809 H         1 UNK         0.0788 
     99 H99        29.0720   24.1567   -2.6278 H         1 UNK         0.2993 
    100 H100       31.6188   25.2357   -3.4274 H         1 UNK         0.0949 
    101 H101       31.2110   27.6854   -1.6382 H         1 UNK         0.0767 
    102 H102       32.7628   26.8797   -1.8665 H         1 UNK         0.0767 
    103 H103       31.9595   27.6499   -3.2259 H         1 UNK         0.0767 
    104 H104       31.7075   24.0663   -1.5349 H         1 UNK         0.3013 
    105 H105       28.7057   27.7157    5.3563 H         1 UNK         0.3121 
    106 H106       30.9415   29.0588    4.7038 H         1 UNK         0.0774 
    107 H107       31.2355   29.4277    7.1548 H         1 UNK         0.0815 
    108 H108       29.5302   29.0917    7.4243 H         1 UNK         0.0815 
    109 H109       30.6056   27.8271    6.8324 H         1 UNK         0.0815 
    110 H110       27.9008   30.6868    5.4388 H         1 UNK         0.2987 
    111 H111       28.8325   33.3139    5.9200 H         1 UNK         0.0949 
    112 H112       26.5048   33.9644    5.2577 H         1 UNK         0.0806 
    113 H113       26.2229   32.3503    4.6207 H         1 UNK         0.0806 
    114 H114       26.4945   32.5895    6.3481 H         1 UNK         0.0806 
    115 H115       28.6163   31.5212    2.9151 H         1 UNK         0.3010 
    116 H116       29.6151   33.9065    1.3857 H         1 UNK         0.0829 
    117 H117       27.3867   33.1779    0.5509 H         1 UNK         0.0813 
    118 H118       28.6364   32.8142   -0.6287 H         1 UNK         0.0813 
    119 H119       27.9710   31.5255    0.3662 H         1 UNK         0.0813 
    120 H120       29.8633   30.3726    1.9622 H         1 UNK         0.3038 
    121 H121       32.0146   30.0177    0.0735 H         1 UNK         0.0769 
    122 H122       31.8237   27.6665    0.7676 H         1 UNK         0.0811 
    123 H123       30.2073   28.3298    0.5795 H         1 UNK         0.0811 
    124 H124       30.8918   28.0983    2.1869 H         1 UNK         0.0811 
    125 H125       32.0272   30.9412    3.4043 H         1 UNK         0.3204 
    126 H126       33.4932   31.1892    4.9999 H         1 UNK         0.0748 
    127 H127       35.9177   31.2578    4.6310 H         1 UNK         0.0771 
    128 H128       35.7539   30.5055    3.0545 H         1 UNK         0.0771 
    129 H129       35.0929   32.1146    3.3389 H         1 UNK         0.0771 
    130 H130       34.0455   28.1950    3.1764 H         1 UNK         0.2980 
    131 H131       34.3163   26.0785    3.7109 H         1 UNK         0.0545 
    132 H132       37.6908   27.0413    5.2716 H         1 UNK         0.3459 
    133 H133       36.6060   28.0527    4.3495 H         1 UNK         0.3459 
    134 H134       33.0895   26.7658    6.4304 H         1 UNK         0.0616 
    135 H135       33.4591   25.1420    5.9150 H         1 UNK         0.0616 
    136 H136       30.5750   25.3772    6.7776 H         1 UNK         0.0634 
    137 H137       31.3731   24.0129    6.0351 H         1 UNK         0.0634 
@<TRIPOS>BOND
     1    1    2 1    
     2    1   72 1    
     3    1   73 1    
     4    1   74 1    
     5    2    3 2    
     6    2    4 am   BACKBONE|DICT|INTERRES
     7    4    5 1    
     8    4   75 1    
     9    5    6 1    
    10    5   35 1    
    11    5   76 1    
    12    6    7 1    
    13    6   77 1    
    14    6   78 1    
    15    7    8 1    
    16    8    9 1    
    17    8   79 1    
    18    8   80 1    
    19    9   10 ar   
    20    9   14 ar   
    21   10   11 ar   
    22   10   81 1    
    23   11   12 ar   
    24   11   71 1    
    25   12   13 ar   
    26   12   82 1    
    27   13   14 ar   
    28   13   15 1    
    29   14   83 1    
    30   15   16 1    
    31   15   84 1    
    32   15   85 1    
    33   16   17 1    
    34   17   18 1    
    35   17   86 1    
    36   17   87 1    
    37   18   19 1    
    38   18   37 1    
    39   18   88 1    
    40   19   20 am   BACKBONE|DICT|INTERRES
    41   19   89 1    
    42   20   21 2    
    43   20   22 1    
    44   22   23 1    
    45   22   24 1    
    46   22   90 1    
    47   23   91 1    
    48   23   92 1    
    49   23   93 1    
    50   24   25 am   BACKBONE|DICT|INTERRES
    51   24   94 1    
    52   25   26 2    
    53   25   27 1    
    54   27   28 1    
    55   27   29 1    
    56   27   95 1    
    57   28   96 1    
    58   28   97 1    
    59   28   98 1    
    60   29   30 am   BACKBONE|DICT|INTERRES
    61   29   99 1    
    62   30   31 2    
    63   30   32 1    
    64   32   33 1    
    65   32   34 1    
    66   32  100 1    
    67   33  101 1    
    68   33  102 1    
    69   33  103 1    
    70   34   35 am   BACKBONE|DICT|INTERRES
    71   34  104 1    
    72   35   36 2    
    73   37   38 2    
    74   37   39 am   BACKBONE|DICT|INTERRES
    75   39   40 1    
    76   39  105 1    
    77   40   41 1    
    78   40   42 1    
    79   40  106 1    
    80   41  107 1    
    81   41  108 1    
    82   41  109 1    
    83   42   43 2    
    84   42   44 am   BACKBONE|DICT|INTERRES
    85   44   45 1    
    86   44  110 1    
    87   45   46 1    
    88   45   47 1    
    89   45  111 1    
    90   46  112 1    
    91   46  113 1    
    92   46  114 1    
    93   47   48 2    
    94   47   49 am   BACKBONE|DICT|INTERRES
    95   49   50 1    
    96   49  115 1    
    97   50   51 1    
    98   50   52 1    
    99   50  116 1    
   100   51  117 1    
   101   51  118 1    
   102   51  119 1    
   103   52   53 2    
   104   52   54 am   BACKBONE|DICT|INTERRES
   105   54   55 1    
   106   54  120 1    
   107   55   56 1    
   108   55   57 1    
   109   55  121 1    
   110   56  122 1    
   111   56  123 1    
   112   56  124 1    
   113   57   58 2    
   114   57   59 am   BACKBONE|DICT|INTERRES
   115   59   60 1    
   116   59  125 1    
   117   60   61 1    
   118   60   62 1    
   119   60  126 1    
   120   61  127 1    
   121   61  128 1    
   122   61  129 1    
   123   62   63 2    
   124   62   64 am   BACKBONE|DICT|INTERRES
   125   64   65 1    
   126   64  130 1    
   127   65   66 1    
   128   65   69 1    
   129   65  131 1    
   130   66   67 am   BACKBONE|DICT|INTERRES
   131   66   68 2    
   132   67  132 1    
   133   67  133 1    
   134   69   70 1    
   135   69  134 1    
   136   69  135 1    
   137   70   71 1    
   138   71  136 1    
   139   71  137 1    
@<TRIPOS>SUBSTRUCTURE
     1 UNK         1 GROUP             0       ****    0 ROOT    
