@<TRIPOS>MOLECULE
3R136
137   139    1
SMALL
USER_CHARGES


@<TRIPOS>ATOM
      1 CA         25.6206   20.6401    0.3907 C.3       0 UNK        -0.1979 
      2 C          26.7656   21.3944    1.0489 C.2       0 UNK         0.4864 
      3 O          26.6796   21.7117    2.2366 O.2       0 UNK        -0.5359 
      4 N          27.8267   21.6928    0.2830 N.am      1 UNK        -0.4318 
      5 CA         29.0358   22.4171    0.6981 C.3       1 UNK         0.0824 
      6 C6         29.9939   21.5419    1.5657 C.3       12 UNK        -0.0944 
      7 S7         31.1831   20.6466    0.5103 S.3       12 UNK        -0.2672 
      8 C8         32.6835   21.6809    0.6703 C.3       12 UNK         0.0333 
      9 C9         32.3982   23.1561    0.4135 C.ar      12 UNK        -0.0807 
     10 C10        32.4022   24.0699    1.4741 C.ar      12 UNK        -0.0894 
     11 C11        32.0547   25.4061    1.2582 C.ar      12 UNK        -0.0804 
     12 C12        31.7216   25.8304   -0.0291 C.ar      12 UNK        -0.0824 
     13 C13        31.7154   24.9296   -1.0963 C.ar      12 UNK        -0.0762 
     14 C14        32.0742   23.5968   -0.8738 C.ar      12 UNK        -0.0782 
     15 C15        31.2724   25.3851   -2.4767 C.3       12 UNK         0.0230 
     16 S16        29.5060   25.0148   -2.7229 S.3       12 UNK        -0.2608 
     17 C17        28.7944   26.6464   -3.1475 C.3       12 UNK        -0.0989 
     18 CA         28.0843   27.3809   -1.9715 C.3       5 UNK         0.0716 
     19 N          27.1450   26.5142   -1.2493 N.am      5 UNK        -0.4135 
     20 C          25.8756   26.3246   -1.6327 C.2       4 UNK         0.5031 
     21 O          25.3037   27.0219   -2.4723 O.2       4 UNK        -0.5229 
     22 CA         25.1147   25.1367   -1.0285 C.3       4 UNK         0.0329 
     23 CB         25.5399   23.8347   -1.7285 C.3       4 UNK        -0.2001 
     24 N          25.3166   24.9955    0.4150 N.am      4 UNK        -0.4303 
     25 C          24.3599   25.1844    1.3370 C.2       3 UNK         0.5044 
     26 O          23.2315   25.6011    1.0713 O.2       3 UNK        -0.5152 
     27 CA         24.6777   24.8206    2.8011 C.3       3 UNK         0.0319 
     28 CB         23.8896   23.5701    3.2266 C.3       3 UNK        -0.2001 
     29 N          26.1020   24.5854    3.0413 N.am      3 UNK        -0.4354 
     30 C          26.9910   25.5599    3.2806 C.2       2 UNK         0.4964 
     31 O          26.6838   26.7452    3.3999 O.2       2 UNK        -0.5047 
     32 CA         28.4764   25.1613    3.3670 C.3       2 UNK         0.0288 
     33 CB         28.9213   25.0172    4.8304 C.3       2 UNK        -0.2113 
     34 N          28.8136   23.9416    2.6319 N.am      2 UNK        -0.4145 
     35 C          28.6747   23.7879    1.3073 C.2       1 UNK         0.5006 
     36 O          28.2222   24.6677    0.5709 O.2       1 UNK        -0.5103 
     37 C          29.0343   28.1629   -1.0438 C.2       5 UNK         0.5055 
     38 O          30.1004   28.5879   -1.4944 O.2       5 UNK        -0.5220 
     39 N          28.6360   28.3944    0.2167 N.am      6 UNK        -0.4450 
     40 CA         29.3277   29.3208    1.1231 C.3       6 UNK         0.0367 
     41 CB         28.7903   29.1591    2.5542 C.3       6 UNK        -0.1929 
     42 C          29.1771   30.7863    0.6755 C.2       6 UNK         0.5070 
     43 O          28.1971   31.1338    0.0113 O.2       6 UNK        -0.5237 
     44 N          30.1319   31.6230    1.0915 N.am      7 UNK        -0.4739 
     45 CA         30.1326   33.0672    0.8629 C.3       7 UNK         0.0276 
     46 CB         30.7981   33.4083   -0.4836 C.3       7 UNK        -0.1927 
     47 C          30.8184   33.7617    2.0419 C.2       7 UNK         0.5013 
     48 O          30.1906   34.5812    2.7135 O.2       7 UNK        -0.5193 
     49 N          32.0797   33.3894    2.2997 N.am      8 UNK        -0.4253 
     50 CA         32.8281   33.8011    3.4864 C.3       8 UNK         0.0242 
     51 CB         34.3314   33.5971    3.2341 C.3       8 UNK        -0.2000 
     52 C          32.3796   32.9813    4.7041 C.2       8 UNK         0.4948 
     53 O          32.1976   31.7672    4.5806 O.2       8 UNK        -0.5275 
     54 N          32.2702   33.6396    5.8666 N.am      9 UNK        -0.4246 
     55 CA         31.8867   33.0246    7.1453 C.3       9 UNK         0.0261 
     56 CB         31.7331   34.1181    8.2146 C.3       9 UNK        -0.1959 
     57 C          32.8602   31.9332    7.6268 C.2       9 UNK         0.5033 
     58 O          32.4332   30.9928    8.2983 O.2       9 UNK        -0.5390 
     59 N          34.1359   32.0481    7.2294 N.am      10 UNK        -0.4215 
     60 CA         35.1977   31.0648    7.4599 C.3       10 UNK         0.0240 
     61 CB         36.5309   31.6415    6.9552 C.3       10 UNK        -0.1982 
     62 C          34.9341   29.6858    6.8230 C.2       10 UNK         0.4970 
     63 O          35.5219   28.7038    7.2783 O.2       10 UNK        -0.4916 
     64 N          34.0616   29.6249    5.8059 N.am      11 UNK        -0.4279 
     65 CA         33.5793   28.3741    5.2035 C.3       11 UNK         0.1003 
     66 C          32.5623   27.5962    6.0939 C.2       11 UNK         0.5709 
     67 N          32.0045   28.1839    7.1478 N.am      11 UNK        -0.7358 
     68 O          32.2881   26.4276    5.8382 O.2       11 UNK        -0.4999 
     69 C69        33.0365   28.6211    3.7668 C.3       12 UNK        -0.0954 
     70 S70        33.5307   27.3272    2.5801 S.3       12 UNK        -0.2268 
     71 C71        31.9865   26.3873    2.4157 C.3       12 UNK         0.0203 
     72 H72        25.8061   20.4575   -0.6676 H         1 UNK         0.0888 
     73 H73        25.4762   19.6781    0.8815 H         1 UNK         0.0888 
     74 H74        24.6962   21.2100    0.4801 H         1 UNK         0.0888 
     75 H75        27.8194   21.4101   -0.6869 H         1 UNK         0.3017 
     76 H76        29.5455   22.6770   -0.2302 H         1 UNK         0.0873 
     77 H77        30.5739   22.1205    2.2844 H         1 UNK         0.0745 
     78 H78        29.4368   20.8172    2.1616 H         1 UNK         0.0745 
     79 H79        33.1068   21.5380    1.6658 H         1 UNK         0.0705 
     80 H80        33.4365   21.3279   -0.0358 H         1 UNK         0.0705 
     81 H81        32.6440   23.7366    2.4743 H         1 UNK         0.1334 
     82 H82        31.4483   26.8619   -0.1925 H         1 UNK         0.1417 
     83 H83        32.0509   22.8900   -1.6925 H         1 UNK         0.1562 
     84 H84        31.8552   24.8748   -3.2449 H         1 UNK         0.0748 
     85 H85        31.4687   26.4506   -2.6024 H         1 UNK         0.0748 
     86 H86        28.0562   26.4629   -3.9297 H         1 UNK         0.0940 
     87 H87        29.5462   27.2765   -3.6258 H         1 UNK         0.0940 
     88 H88        27.5077   28.1879   -2.4288 H         1 UNK         0.0703 
     89 H89        27.5671   25.8718   -0.5789 H         1 UNK         0.3081 
     90 H90        24.0562   25.2908   -1.2487 H         1 UNK         0.0719 
     91 H91        26.5922   23.6061   -1.5561 H         1 UNK         0.0809 
     92 H92        24.9472   22.9886   -1.3823 H         1 UNK         0.0809 
     93 H93        25.3972   23.9072   -2.8076 H         1 UNK         0.0809 
     94 H94        26.2432   24.7155    0.7165 H         1 UNK         0.2990 
     95 H95        24.3427   25.6536    3.4231 H         1 UNK         0.0690 
     96 H96        24.0764   23.3196    4.2709 H         1 UNK         0.0788 
     97 H97        24.1509   22.7015    2.6216 H         1 UNK         0.0788 
     98 H98        22.8157   23.7292    3.1199 H         1 UNK         0.0788 
     99 H99        26.4281   23.6282    2.9388 H         1 UNK         0.2993 
    100 H100       29.0517   25.9658    2.9109 H         1 UNK         0.0949 
    101 H101       29.9920   24.8246    4.9043 H         1 UNK         0.0767 
    102 H102       28.7218   25.9322    5.3902 H         1 UNK         0.0767 
    103 H103       28.3963   24.2043    5.3337 H         1 UNK         0.0767 
    104 H104       29.1251   23.1527    3.1792 H         1 UNK         0.3013 
    105 H105       27.7265   28.0638    0.5045 H         1 UNK         0.3121 
    106 H106       30.3914   29.0729    1.1200 H         1 UNK         0.0774 
    107 H107       29.2448   29.8827    3.2327 H         1 UNK         0.0815 
    108 H108       27.7104   29.3056    2.6002 H         1 UNK         0.0815 
    109 H109       29.0139   28.1752    2.9569 H         1 UNK         0.0815 
    110 H110       30.8581   31.2685    1.6993 H         1 UNK         0.2987 
    111 H111       29.1016   33.4287    0.8372 H         1 UNK         0.0949 
    112 H112       31.8160   33.0226   -0.5478 H         1 UNK         0.0806 
    113 H113       30.2330   32.9912   -1.3174 H         1 UNK         0.0806 
    114 H114       30.8452   34.4877   -0.6334 H         1 UNK         0.0806 
    115 H115       32.5228   32.7073    1.7026 H         1 UNK         0.3010 
    116 H116       32.6446   34.8618    3.6727 H         1 UNK         0.0829 
    117 H117       34.6697   34.1702    2.3706 H         1 UNK         0.0813 
    118 H118       34.9209   33.9277    4.0903 H         1 UNK         0.0813 
    119 H119       34.5747   32.5484    3.0568 H         1 UNK         0.0813 
    120 H120       32.4424   34.6353    5.8794 H         1 UNK         0.3038 
    121 H121       30.9146   32.5480    7.0011 H         1 UNK         0.0769 
    122 H122       32.6684   34.6530    8.3848 H         1 UNK         0.0811 
    123 H123       31.4251   33.6891    9.1693 H         1 UNK         0.0811 
    124 H124       30.9743   34.8478    7.9311 H         1 UNK         0.0811 
    125 H125       34.3851   32.8615    6.6864 H         1 UNK         0.3204 
    126 H126       35.2746   30.9118    8.5383 H         1 UNK         0.0748 
    127 H127       37.3520   30.9468    7.1391 H         1 UNK         0.0771 
    128 H128       36.5055   31.8388    5.8826 H         1 UNK         0.0771 
    129 H129       36.7796   32.5733    7.4637 H         1 UNK         0.0771 
    130 H130       33.5893   30.4679    5.5004 H         1 UNK         0.2980 
    131 H131       34.4520   27.7233    5.1224 H         1 UNK         0.0545 
    132 H132       32.2274   29.1394    7.4007 H         1 UNK         0.3459 
    133 H133       31.3587   27.6568    7.7129 H         1 UNK         0.3459 
    134 H134       31.9537   28.7617    3.7600 H         1 UNK         0.0616 
    135 H135       33.4430   29.5509    3.3652 H         1 UNK         0.0616 
    136 H136       31.1560   27.0751    2.2590 H         1 UNK         0.0634 
    137 H137       31.7781   25.8577    3.3451 H         1 UNK         0.0634 
@<TRIPOS>BOND
     1    1    2 1    
     2    1   72 1    
     3    1   73 1    
     4    1   74 1    
     5    2    3 2    
     6    2    4 am   BACKBONE|DICT|INTERRES
     7    4    5 1    
     8    4   75 1    
     9    5    6 1    
    10    5   35 1    
    11    5   76 1    
    12    6    7 1    
    13    6   77 1    
    14    6   78 1    
    15    7    8 1    
    16    8    9 1    
    17    8   79 1    
    18    8   80 1    
    19    9   10 ar   
    20    9   14 ar   
    21   10   11 ar   
    22   10   81 1    
    23   11   12 ar   
    24   11   71 1    
    25   12   13 ar   
    26   12   82 1    
    27   13   14 ar   
    28   13   15 1    
    29   14   83 1    
    30   15   16 1    
    31   15   84 1    
    32   15   85 1    
    33   16   17 1    
    34   17   18 1    
    35   17   86 1    
    36   17   87 1    
    37   18   19 1    
    38   18   37 1    
    39   18   88 1    
    40   19   20 am   BACKBONE|DICT|INTERRES
    41   19   89 1    
    42   20   21 2    
    43   20   22 1    
    44   22   23 1    
    45   22   24 1    
    46   22   90 1    
    47   23   91 1    
    48   23   92 1    
    49   23   93 1    
    50   24   25 am   BACKBONE|DICT|INTERRES
    51   24   94 1    
    52   25   26 2    
    53   25   27 1    
    54   27   28 1    
    55   27   29 1    
    56   27   95 1    
    57   28   96 1    
    58   28   97 1    
    59   28   98 1    
    60   29   30 am   BACKBONE|DICT|INTERRES
    61   29   99 1    
    62   30   31 2    
    63   30   32 1    
    64   32   33 1    
    65   32   34 1    
    66   32  100 1    
    67   33  101 1    
    68   33  102 1    
    69   33  103 1    
    70   34   35 am   BACKBONE|DICT|INTERRES
    71   34  104 1    
    72   35   36 2    
    73   37   38 2    
    74   37   39 am   BACKBONE|DICT|INTERRES
    75   39   40 1    
    76   39  105 1    
    77   40   41 1    
    78   40   42 1    
    79   40  106 1    
    80   41  107 1    
    81   41  108 1    
    82   41  109 1    
    83   42   43 2    
    84   42   44 am   BACKBONE|DICT|INTERRES
    85   44   45 1    
    86   44  110 1    
    87   45   46 1    
    88   45   47 1    
    89   45  111 1    
    90   46  112 1    
    91   46  113 1    
    92   46  114 1    
    93   47   48 2    
    94   47   49 am   BACKBONE|DICT|INTERRES
    95   49   50 1    
    96   49  115 1    
    97   50   51 1    
    98   50   52 1    
    99   50  116 1    
   100   51  117 1    
   101   51  118 1    
   102   51  119 1    
   103   52   53 2    
   104   52   54 am   BACKBONE|DICT|INTERRES
   105   54   55 1    
   106   54  120 1    
   107   55   56 1    
   108   55   57 1    
   109   55  121 1    
   110   56  122 1    
   111   56  123 1    
   112   56  124 1    
   113   57   58 2    
   114   57   59 am   BACKBONE|DICT|INTERRES
   115   59   60 1    
   116   59  125 1    
   117   60   61 1    
   118   60   62 1    
   119   60  126 1    
   120   61  127 1    
   121   61  128 1    
   122   61  129 1    
   123   62   63 2    
   124   62   64 am   BACKBONE|DICT|INTERRES
   125   64   65 1    
   126   64  130 1    
   127   65   66 1    
   128   65   69 1    
   129   65  131 1    
   130   66   67 am   BACKBONE|DICT|INTERRES
   131   66   68 2    
   132   67  132 1    
   133   67  133 1    
   134   69   70 1    
   135   69  134 1    
   136   69  135 1    
   137   70   71 1    
   138   71  136 1    
   139   71  137 1    
@<TRIPOS>SUBSTRUCTURE
     1 UNK         1 GROUP             0       ****    0 ROOT    
