@<TRIPOS>MOLECULE
3R136
137   139    1
SMALL
USER_CHARGES


@<TRIPOS>ATOM
      1 CA         27.2723   21.3505    3.1094 C.3       0 UNK        -0.1979 
      2 C          27.3797   20.7604    1.7123 C.2       0 UNK         0.4864 
      3 O          26.4215   20.1580    1.2268 O.2       0 UNK        -0.5359 
      4 N          28.5361   20.9371    1.0581 N.am      1 UNK        -0.4318 
      5 CA         28.7844   20.5164   -0.3265 C.3       1 UNK         0.0824 
      6 C6         30.3011   20.4058   -0.6351 C.3       12 UNK        -0.0944 
      7 S7         31.2413   21.9532   -0.3550 S.3       12 UNK        -0.2672 
      8 C8         32.3221   21.5309    1.0497 C.3       12 UNK         0.0333 
      9 C9         32.1926   22.5617    2.1598 C.ar      12 UNK        -0.0807 
     10 C10        32.9941   23.7073    2.1577 C.ar      12 UNK        -0.0894 
     11 C11        32.8795   24.6543    3.1803 C.ar      12 UNK        -0.0804 
     12 C12        31.9513   24.4527    4.2061 C.ar      12 UNK        -0.0824 
     13 C13        31.1314   23.3197    4.2079 C.ar      12 UNK        -0.0762 
     14 C14        31.2692   22.3703    3.1910 C.ar      12 UNK        -0.0782 
     15 C15        30.0935   23.1077    5.3028 C.3       12 UNK         0.0230 
     16 S16        28.9372   24.5059    5.5177 S.3       12 UNK        -0.2608 
     17 C17        28.4465   25.0021    3.8226 C.3       12 UNK        -0.0989 
     18 CA         28.7400   26.5040    3.5628 C.3       5 UNK         0.0716 
     19 N          28.7969   26.8217    2.1305 N.am      5 UNK        -0.4135 
     20 C          29.2771   27.9779    1.6412 C.2       4 UNK         0.5031 
     21 O          29.7445   28.8739    2.3423 O.2       4 UNK        -0.5229 
     22 CA         29.1680   28.2133    0.1228 C.3       4 UNK         0.0329 
     23 CB         30.3895   27.6238   -0.5981 C.3       4 UNK        -0.2001 
     24 N          27.9490   27.6639   -0.4711 N.am      4 UNK        -0.4303 
     25 C          26.6957   27.9145   -0.0664 C.2       3 UNK         0.5044 
     26 O          26.4154   28.7506    0.7915 O.2       3 UNK        -0.5152 
     27 CA         25.5688   27.0500   -0.6667 C.3       3 UNK         0.0319 
     28 CB         24.7126   27.8845   -1.6323 C.3       3 UNK        -0.2001 
     29 N          26.0215   25.8310   -1.3529 N.am      3 UNK        -0.4354 
     30 C          26.7382   24.8377   -0.8065 C.2       2 UNK         0.4964 
     31 O          27.1161   24.8246    0.3715 O.2       2 UNK        -0.5047 
     32 CA         27.1625   23.7150   -1.7616 C.3       2 UNK         0.0288 
     33 CB         28.1403   24.2399   -2.8345 C.3       2 UNK        -0.2113 
     34 N          27.8051   22.6727   -0.9742 N.am      2 UNK        -0.4145 
     35 C          28.0591   21.4149   -1.3532 C.2       1 UNK         0.5006 
     36 O          27.7495   20.9536   -2.4536 O.2       1 UNK        -0.5103 
     37 C          27.7490   27.4194    4.3205 C.2       5 UNK         0.5055 
     38 O          28.0327   27.8145    5.4522 O.2       5 UNK        -0.5220 
     39 N          26.6162   27.7556    3.6838 N.am      6 UNK        -0.4450 
     40 CA         25.6090   28.6695    4.2283 C.3       6 UNK         0.0367 
     41 CB         24.2772   28.4884    3.4815 C.3       6 UNK        -0.1929 
     42 C          26.0729   30.1349    4.1833 C.2       6 UNK         0.5070 
     43 O          25.7829   30.8853    5.1155 O.2       6 UNK        -0.5237 
     44 N          26.7936   30.5117    3.1165 N.am      7 UNK        -0.4739 
     45 CA         27.4380   31.8201    2.9677 C.3       7 UNK         0.0276 
     46 CB         27.9523   31.9826    1.5283 C.3       7 UNK        -0.1927 
     47 C          28.5747   32.0319    3.9841 C.2       7 UNK         0.5013 
     48 O          28.6560   33.1072    4.5803 O.2       7 UNK        -0.5193 
     49 N          29.3964   30.9894    4.1783 N.am      8 UNK        -0.4253 
     50 CA         30.5183   30.8944    5.1146 C.3       8 UNK         0.0242 
     51 CB         30.0072   30.8966    6.5738 C.3       8 UNK        -0.2000 
     52 C          31.6160   31.9359    4.8191 C.2       8 UNK         0.4948 
     53 O          31.9021   32.1942    3.6463 O.2       8 UNK        -0.5275 
     54 N          32.2374   32.4847    5.8749 N.am      9 UNK        -0.4246 
     55 CA         33.3606   33.4286    5.8496 C.3       9 UNK         0.0261 
     56 CB         32.9093   34.8050    5.3070 C.3       9 UNK        -0.1959 
     57 C          34.5703   32.8206    5.1153 C.2       9 UNK         0.5033 
     58 O          35.1880   31.8966    5.6470 O.2       9 UNK        -0.5390 
     59 N          34.8671   33.3178    3.9079 N.am      10 UNK        -0.4215 
     60 CA         35.9001   32.7864    3.0161 C.3       10 UNK         0.0240 
     61 CB         36.2159   33.8358    1.9370 C.3       10 UNK        -0.1982 
     62 C          35.5256   31.4405    2.3636 C.2       10 UNK         0.4970 
     63 O          36.4262   30.7512    1.8833 O.2       10 UNK        -0.4916 
     64 N          34.2288   31.0945    2.3408 N.am      11 UNK        -0.4279 
     65 CA         33.6729   29.8835    1.7153 C.3       11 UNK         0.1003 
     66 C          33.8332   29.8453    0.1624 C.2       11 UNK         0.5709 
     67 N          33.8560   30.9901   -0.5112 N.am      11 UNK        -0.7358 
     68 O          33.9310   28.7835   -0.4475 O.2       11 UNK        -0.4999 
     69 C69        34.1318   28.5843    2.4424 C.3       12 UNK        -0.0954 
     70 S70        32.8576   27.2843    2.3988 S.3       12 UNK        -0.2268 
     71 C71        33.7458   25.9031    3.1694 C.3       12 UNK         0.0203 
     72 H72        27.3766   20.5677    3.8601 H         1 UNK         0.0888 
     73 H73        28.0383   22.1028    3.2842 H         1 UNK         0.0888 
     74 H74        26.3018   21.8275    3.2445 H         1 UNK         0.0888 
     75 H75        29.2916   21.4471    1.4905 H         1 UNK         0.3017 
     76 H76        28.3599   19.5170   -0.4466 H         1 UNK         0.0873 
     77 H77        30.7301   19.5965   -0.0436 H         1 UNK         0.0745 
     78 H78        30.4527   20.1036   -1.6733 H         1 UNK         0.0745 
     79 H79        32.0933   20.5393    1.4412 H         1 UNK         0.0705 
     80 H80        33.3543   21.4845    0.6993 H         1 UNK         0.0705 
     81 H81        33.7032   23.8646    1.3562 H         1 UNK         0.1334 
     82 H82        31.8507   25.1891    4.9919 H         1 UNK         0.1417 
     83 H83        30.6571   21.4794    3.2017 H         1 UNK         0.1562 
     84 H84        30.6129   22.9413    6.2473 H         1 UNK         0.0748 
     85 H85        29.5122   22.2036    5.1198 H         1 UNK         0.0748 
     86 H86        27.3894   24.7732    3.6726 H         1 UNK         0.0940 
     87 H87        28.9823   24.3916    3.0960 H         1 UNK         0.0940 
     88 H88        29.7364   26.7193    3.9568 H         1 UNK         0.0703 
     89 H89        28.3961   26.1437    1.4920 H         1 UNK         0.3081 
     90 H90        29.1561   29.2913   -0.0464 H         1 UNK         0.0719 
     91 H91        30.4410   26.5394   -0.4902 H         1 UNK         0.0809 
     92 H92        30.3779   27.8581   -1.6626 H         1 UNK         0.0809 
     93 H93        31.3136   28.0328   -0.1895 H         1 UNK         0.0809 
     94 H94        28.0739   26.9665   -1.1890 H         1 UNK         0.2990 
     95 H95        24.9362   26.7369    0.1663 H         1 UNK         0.0690 
     96 H96        23.8475   27.3224   -1.9845 H         1 UNK         0.0788 
     97 H97        25.2843   28.2059   -2.5039 H         1 UNK         0.0788 
     98 H98        24.3334   28.7828   -1.1423 H         1 UNK         0.0788 
     99 H99        25.7718   25.7571   -2.3292 H         1 UNK         0.2993 
    100 H100       26.2678   23.3047   -2.2345 H         1 UNK         0.0949 
    101 H101       28.4463   23.4469   -3.5170 H         1 UNK         0.0767 
    102 H102       27.6867   25.0218   -3.4444 H         1 UNK         0.0767 
    103 H103       29.0439   24.6547   -2.3851 H         1 UNK         0.0767 
    104 H104       28.0447   22.9649   -0.0351 H         1 UNK         0.3013 
    105 H105       26.4815   27.4510    2.7301 H         1 UNK         0.3121 
    106 H106       25.4427   28.4077    5.2757 H         1 UNK         0.0774 
    107 H107       24.3584   28.7546    2.4276 H         1 UNK         0.0815 
    108 H108       23.5025   29.1222    3.9151 H         1 UNK         0.0815 
    109 H109       23.9239   27.4591    3.5424 H         1 UNK         0.0815 
    110 H110       26.9126   29.8468    2.3578 H         1 UNK         0.2987 
    111 H111       26.6818   32.5872    3.1487 H         1 UNK         0.0949 
    112 H112       28.7349   31.2608    1.2950 H         1 UNK         0.0806 
    113 H113       27.1497   31.8542    0.8016 H         1 UNK         0.0806 
    114 H114       28.3736   32.9773    1.3773 H         1 UNK         0.0806 
    115 H115       29.3008   30.1898    3.5548 H         1 UNK         0.3010 
    116 H116       30.9735   29.9208    4.9257 H         1 UNK         0.0829 
    117 H117       29.6105   31.8695    6.8668 H         1 UNK         0.0813 
    118 H118       29.2099   30.1644    6.7061 H         1 UNK         0.0813 
    119 H119       30.7972   30.6288    7.2762 H         1 UNK         0.0813 
    120 H120       31.9480   32.1818    6.7943 H         1 UNK         0.3038 
    121 H121       33.6735   33.5715    6.8851 H         1 UNK         0.0769 
    122 H122       33.7342   35.5190    5.3069 H         1 UNK         0.0811 
    123 H123       32.5153   34.7487    4.2918 H         1 UNK         0.0811 
    124 H124       32.1245   35.2283    5.9340 H         1 UNK         0.0811 
    125 H125       34.2860   34.0597    3.5447 H         1 UNK         0.3204 
    126 H126       36.8053   32.6199    3.6042 H         1 UNK         0.0748 
    127 H127       37.0065   33.4862    1.2712 H         1 UNK         0.0771 
    128 H128       35.3444   34.0569    1.3195 H         1 UNK         0.0771 
    129 H129       36.5600   34.7704    2.3807 H         1 UNK         0.0771 
    130 H130       33.5395   31.7059    2.7706 H         1 UNK         0.2980 
    131 H131       32.5978   29.9811    1.8735 H         1 UNK         0.0545 
    132 H132       33.9595   30.9690   -1.5132 H         1 UNK         0.3459 
    133 H133       33.7704   31.8705   -0.0298 H         1 UNK         0.3459 
    134 H134       35.0658   28.2050    2.0241 H         1 UNK         0.0616 
    135 H135       34.3325   28.7914    3.4949 H         1 UNK         0.0616 
    136 H136       34.0281   26.1749    4.1877 H         1 UNK         0.0634 
    137 H137       34.6733   25.7181    2.6253 H         1 UNK         0.0634 
@<TRIPOS>BOND
     1    1    2 1    
     2    1   72 1    
     3    1   73 1    
     4    1   74 1    
     5    2    3 2    
     6    2    4 am   BACKBONE|DICT|INTERRES
     7    4    5 1    
     8    4   75 1    
     9    5    6 1    
    10    5   35 1    
    11    5   76 1    
    12    6    7 1    
    13    6   77 1    
    14    6   78 1    
    15    7    8 1    
    16    8    9 1    
    17    8   79 1    
    18    8   80 1    
    19    9   10 ar   
    20    9   14 ar   
    21   10   11 ar   
    22   10   81 1    
    23   11   12 ar   
    24   11   71 1    
    25   12   13 ar   
    26   12   82 1    
    27   13   14 ar   
    28   13   15 1    
    29   14   83 1    
    30   15   16 1    
    31   15   84 1    
    32   15   85 1    
    33   16   17 1    
    34   17   18 1    
    35   17   86 1    
    36   17   87 1    
    37   18   19 1    
    38   18   37 1    
    39   18   88 1    
    40   19   20 am   BACKBONE|DICT|INTERRES
    41   19   89 1    
    42   20   21 2    
    43   20   22 1    
    44   22   23 1    
    45   22   24 1    
    46   22   90 1    
    47   23   91 1    
    48   23   92 1    
    49   23   93 1    
    50   24   25 am   BACKBONE|DICT|INTERRES
    51   24   94 1    
    52   25   26 2    
    53   25   27 1    
    54   27   28 1    
    55   27   29 1    
    56   27   95 1    
    57   28   96 1    
    58   28   97 1    
    59   28   98 1    
    60   29   30 am   BACKBONE|DICT|INTERRES
    61   29   99 1    
    62   30   31 2    
    63   30   32 1    
    64   32   33 1    
    65   32   34 1    
    66   32  100 1    
    67   33  101 1    
    68   33  102 1    
    69   33  103 1    
    70   34   35 am   BACKBONE|DICT|INTERRES
    71   34  104 1    
    72   35   36 2    
    73   37   38 2    
    74   37   39 am   BACKBONE|DICT|INTERRES
    75   39   40 1    
    76   39  105 1    
    77   40   41 1    
    78   40   42 1    
    79   40  106 1    
    80   41  107 1    
    81   41  108 1    
    82   41  109 1    
    83   42   43 2    
    84   42   44 am   BACKBONE|DICT|INTERRES
    85   44   45 1    
    86   44  110 1    
    87   45   46 1    
    88   45   47 1    
    89   45  111 1    
    90   46  112 1    
    91   46  113 1    
    92   46  114 1    
    93   47   48 2    
    94   47   49 am   BACKBONE|DICT|INTERRES
    95   49   50 1    
    96   49  115 1    
    97   50   51 1    
    98   50   52 1    
    99   50  116 1    
   100   51  117 1    
   101   51  118 1    
   102   51  119 1    
   103   52   53 2    
   104   52   54 am   BACKBONE|DICT|INTERRES
   105   54   55 1    
   106   54  120 1    
   107   55   56 1    
   108   55   57 1    
   109   55  121 1    
   110   56  122 1    
   111   56  123 1    
   112   56  124 1    
   113   57   58 2    
   114   57   59 am   BACKBONE|DICT|INTERRES
   115   59   60 1    
   116   59  125 1    
   117   60   61 1    
   118   60   62 1    
   119   60  126 1    
   120   61  127 1    
   121   61  128 1    
   122   61  129 1    
   123   62   63 2    
   124   62   64 am   BACKBONE|DICT|INTERRES
   125   64   65 1    
   126   64  130 1    
   127   65   66 1    
   128   65   69 1    
   129   65  131 1    
   130   66   67 am   BACKBONE|DICT|INTERRES
   131   66   68 2    
   132   67  132 1    
   133   67  133 1    
   134   69   70 1    
   135   69  134 1    
   136   69  135 1    
   137   70   71 1    
   138   71  136 1    
   139   71  137 1    
@<TRIPOS>SUBSTRUCTURE
     1 UNK         1 GROUP             0       ****    0 ROOT    
