@<TRIPOS>MOLECULE
3R136
137   139    1
SMALL
USER_CHARGES


@<TRIPOS>ATOM
      1 CA         32.6251   24.9653   -5.1148 C.3       0 UNK        -0.1979 
      2 C          32.1333   25.0603   -3.6780 C.2       0 UNK         0.4864 
      3 O          32.9437   25.2120   -2.7630 O.2       0 UNK        -0.5359 
      4 N          30.8152   24.9713   -3.4737 N.am      1 UNK        -0.4318 
      5 CA         30.1582   25.0684   -2.1742 C.3       1 UNK         0.0824 
      6 C6         30.1787   23.7169   -1.4152 C.3       12 UNK        -0.0944 
      7 S7         29.7472   23.8998    0.3447 S.3       12 UNK        -0.2672 
      8 C8         31.3266   23.4963    1.1588 C.3       12 UNK         0.0333 
      9 C9         31.2142   23.6227    2.6721 C.ar      12 UNK        -0.0807 
     10 C10        32.0772   24.4583    3.3880 C.ar      12 UNK        -0.0894 
     11 C11        31.9410   24.6023    4.7722 C.ar      12 UNK        -0.0804 
     12 C12        30.9312   23.8986    5.4391 C.ar      12 UNK        -0.0824 
     13 C13        30.0610   23.0574    4.7377 C.ar      12 UNK        -0.0762 
     14 C14        30.2327   22.9033    3.3585 C.ar      12 UNK        -0.0782 
     15 C15        28.9521   22.3158    5.4818 C.3       12 UNK         0.0230 
     16 S16        27.3899   22.1793    4.5405 S.3       12 UNK        -0.2608 
     17 C17        26.6537   23.8388    4.7211 C.3       12 UNK        -0.0989 
     18 CA         27.0079   24.8065    3.5465 C.3       5 UNK         0.0716 
     19 N          25.8569   25.5319    3.0023 N.am      5 UNK        -0.4135 
     20 C          24.9958   26.3099    3.6785 C.2       4 UNK         0.5031 
     21 O          25.0075   26.4403    4.9031 O.2       4 UNK        -0.5229 
     22 CA         23.9382   27.0939    2.8706 C.3       4 UNK         0.0329 
     23 CB         24.2043   28.6062    2.9681 C.3       4 UNK        -0.2001 
     24 N          23.8717   26.7255    1.4552 N.am      4 UNK        -0.4303 
     25 C          23.3964   25.5711    0.9679 C.2       3 UNK         0.5044 
     26 O          22.8399   24.7160    1.6569 O.2       3 UNK        -0.5152 
     27 CA         23.6136   25.3074   -0.5363 C.3       3 UNK         0.0319 
     28 CB         22.3087   25.5402   -1.3150 C.3       3 UNK        -0.2001 
     29 N          24.6886   26.1014   -1.1512 N.am      3 UNK        -0.4354 
     30 C          25.9802   26.0773   -0.7910 C.2       2 UNK         0.4964 
     31 O          26.4186   25.4083    0.1487 O.2       2 UNK        -0.5047 
     32 CA         26.9125   27.0325   -1.5490 C.3       2 UNK         0.0288 
     33 CB         26.9156   28.4127   -0.8698 C.3       2 UNK        -0.2113 
     34 N          28.2777   26.5133   -1.5650 N.am      2 UNK        -0.4145 
     35 C          28.7319   25.5873   -2.4162 C.2       1 UNK         0.5006 
     36 O          28.0788   25.1425   -3.3654 O.2       1 UNK        -0.5103 
     37 C          28.1233   25.8219    3.8664 C.2       5 UNK         0.5055 
     38 O          28.4001   26.1029    5.0340 O.2       5 UNK        -0.5220 
     39 N          28.7047   26.3989    2.8078 N.am      6 UNK        -0.4450 
     40 CA         29.8073   27.3495    2.8841 C.3       6 UNK         0.0367 
     41 CB         29.2828   28.7582    3.2147 C.3       6 UNK        -0.1929 
     42 C          30.5534   27.3511    1.5496 C.2       6 UNK         0.5070 
     43 O          29.9085   27.4025    0.5016 O.2       6 UNK        -0.5237 
     44 N          31.8899   27.3208    1.6044 N.am      7 UNK        -0.4739 
     45 CA         32.7599   27.4311    0.4278 C.3       7 UNK         0.0276 
     46 CB         34.1098   26.7570    0.7246 C.3       7 UNK        -0.1927 
     47 C          32.9815   28.8920    0.0019 C.2       7 UNK         0.5013 
     48 O          33.2257   29.1530   -1.1763 O.2       7 UNK        -0.5193 
     49 N          32.9058   29.8085    0.9720 N.am      8 UNK        -0.4253 
     50 CA         33.1347   31.2432    0.8586 C.3       8 UNK         0.0242 
     51 CB         34.6345   31.5268    0.6276 C.3       8 UNK        -0.2000 
     52 C          32.6497   31.8905    2.1616 C.2       8 UNK         0.4948 
     53 O          32.3072   31.1765    3.1113 O.2       8 UNK        -0.5275 
     54 N          32.6852   33.2290    2.2132 N.am      9 UNK        -0.4246 
     55 CA         32.3083   34.0517    3.3723 C.3       9 UNK         0.0261 
     56 CB         32.3953   35.5368    2.9830 C.3       9 UNK        -0.1959 
     57 C          33.1207   33.7843    4.6569 C.2       9 UNK         0.5033 
     58 O          32.6541   34.1326    5.7421 O.2       9 UNK        -0.5390 
     59 N          34.2993   33.1581    4.5227 N.am      10 UNK        -0.4215 
     60 CA         35.1088   32.6439    5.6301 C.3       10 UNK         0.0240 
     61 CB         36.4827   32.2066    5.0964 C.3       10 UNK        -0.1982 
     62 C          34.4289   31.4857    6.3865 C.2       10 UNK         0.4970 
     63 O          34.6157   31.3772    7.5991 O.2       10 UNK        -0.4916 
     64 N          33.6525   30.6604    5.6702 N.am      11 UNK        -0.4279 
     65 CA         32.7630   29.6444    6.2473 C.3       11 UNK         0.1003 
     66 C          31.3455   30.2314    6.4935 C.2       11 UNK         0.5709 
     67 N          30.7859   30.9774    5.5477 N.am      11 UNK        -0.7358 
     68 O          30.7634   30.0327    7.5571 O.2       11 UNK        -0.4999 
     69 C69        32.7253   28.3632    5.3705 C.3       12 UNK        -0.0954 
     70 S70        32.0260   26.9370    6.2733 S.3       12 UNK        -0.2268 
     71 C71        32.8903   25.5015    5.5554 C.3       12 UNK         0.0203 
     72 H72        31.8042   24.8280   -5.8186 H         1 UNK         0.0888 
     73 H73        33.3081   24.1231   -5.2222 H         1 UNK         0.0888 
     74 H74        33.1589   25.8747   -5.3892 H         1 UNK         0.0888 
     75 H75        30.1750   24.8718   -4.2522 H         1 UNK         0.3017 
     76 H76        30.6902   25.8159   -1.5844 H         1 UNK         0.0873 
     77 H77        31.1694   23.2651   -1.4831 H         1 UNK         0.0745 
     78 H78        29.4956   22.9994   -1.8739 H         1 UNK         0.0745 
     79 H79        31.6192   22.4768    0.9038 H         1 UNK         0.0705 
     80 H80        32.1018   24.1573    0.7690 H         1 UNK         0.0705 
     81 H81        32.8559   24.9967    2.8685 H         1 UNK         0.1334 
     82 H82        30.8177   24.0195    6.5078 H         1 UNK         0.1417 
     83 H83        29.5774   22.2466    2.8031 H         1 UNK         0.1562 
     84 H84        28.7463   22.7913    6.4421 H         1 UNK         0.0748 
     85 H85        29.3081   21.3097    5.7063 H         1 UNK         0.0748 
     86 H86        26.8900   24.2512    5.7033 H         1 UNK         0.0940 
     87 H87        25.5759   23.6717    4.7487 H         1 UNK         0.0940 
     88 H88        27.3712   24.2054    2.7107 H         1 UNK         0.0703 
     89 H89        25.7935   25.5119    1.9886 H         1 UNK         0.3081 
     90 H90        22.9662   26.8853    3.3224 H         1 UNK         0.0719 
     91 H91        24.2141   28.9360    4.0080 H         1 UNK         0.0809 
     92 H92        25.1679   28.8755    2.5331 H         1 UNK         0.0809 
     93 H93        23.4310   29.1804    2.4575 H         1 UNK         0.0809 
     94 H94        24.2964   27.3677    0.8028 H         1 UNK         0.2990 
     95 H95        23.8890   24.2556   -0.6376 H         1 UNK         0.0690 
     96 H96        22.4151   25.2595   -2.3631 H         1 UNK         0.0788 
     97 H97        21.9956   26.5844   -1.2754 H         1 UNK         0.0788 
     98 H98        21.4953   24.9406   -0.9035 H         1 UNK         0.0788 
     99 H99        24.4137   26.7018   -1.9161 H         1 UNK         0.2993 
    100 H100       26.5588   27.1414   -2.5768 H         1 UNK         0.0949 
    101 H101       27.2380   28.3499    0.1709 H         1 UNK         0.0767 
    102 H102       27.5855   29.1033   -1.3826 H         1 UNK         0.0767 
    103 H103       25.9212   28.8606   -0.8792 H         1 UNK         0.0767 
    104 H104       28.8782   26.8081   -0.7937 H         1 UNK         0.3013 
    105 H105       28.4463   26.1166    1.8694 H         1 UNK         0.3121 
    106 H106       30.4913   27.0238    3.6691 H         1 UNK         0.0774 
    107 H107       28.5241   29.0817    2.5013 H         1 UNK         0.0815 
    108 H108       28.8451   28.7952    4.2124 H         1 UNK         0.0815 
    109 H109       30.0881   29.4923    3.1880 H         1 UNK         0.0815 
    110 H110       32.3438   27.2658    2.5037 H         1 UNK         0.2987 
    111 H111       32.3027   26.9099   -0.4145 H         1 UNK         0.0949 
    112 H112       33.9919   25.6907    0.9117 H         1 UNK         0.0806 
    113 H113       34.7859   26.8541   -0.1263 H         1 UNK         0.0806 
    114 H114       34.6071   27.2012    1.5877 H         1 UNK         0.0806 
    115 H115       32.6372   29.5235    1.9051 H         1 UNK         0.3010 
    116 H116       32.5420   31.6356    0.0300 H         1 UNK         0.0829 
    117 H117       34.8327   32.5955    0.5406 H         1 UNK         0.0813 
    118 H118       34.9911   31.0674   -0.2943 H         1 UNK         0.0813 
    119 H119       35.2469   31.1442    1.4452 H         1 UNK         0.0813 
    120 H120       32.9859   33.7328    1.3907 H         1 UNK         0.3038 
    121 H121       31.2668   33.8210    3.6062 H         1 UNK         0.0769 
    122 H122       31.7403   35.7673    2.1426 H         1 UNK         0.0811 
    123 H123       33.4111   35.8234    2.7080 H         1 UNK         0.0811 
    124 H124       32.0898   36.1771    3.8120 H         1 UNK         0.0811 
    125 H125       34.6145   32.9426    3.5889 H         1 UNK         0.3204 
    126 H126       35.2604   33.4587    6.3413 H         1 UNK         0.0748 
    127 H127       37.1165   31.8409    5.9057 H         1 UNK         0.0771 
    128 H128       36.3962   31.4040    4.3625 H         1 UNK         0.0771 
    129 H129       37.0090   33.0375    4.6262 H         1 UNK         0.0771 
    130 H130       33.4928   30.8671    4.6913 H         1 UNK         0.2980 
    131 H131       33.1620   29.3534    7.2212 H         1 UNK         0.0545 
    132 H132       31.2607   31.1245    4.6626 H         1 UNK         0.3459 
    133 H133       29.8753   31.3754    5.7077 H         1 UNK         0.3459 
    134 H134       33.7405   28.1099    5.0624 H         1 UNK         0.0616 
    135 H135       32.1607   28.5321    4.4536 H         1 UNK         0.0616 
    136 H136       33.3328   24.9232    6.3675 H         1 UNK         0.0634 
    137 H137       33.7220   25.8273    4.9298 H         1 UNK         0.0634 
@<TRIPOS>BOND
     1    1    2 1    
     2    1   72 1    
     3    1   73 1    
     4    1   74 1    
     5    2    3 2    
     6    2    4 am   BACKBONE|DICT|INTERRES
     7    4    5 1    
     8    4   75 1    
     9    5    6 1    
    10    5   35 1    
    11    5   76 1    
    12    6    7 1    
    13    6   77 1    
    14    6   78 1    
    15    7    8 1    
    16    8    9 1    
    17    8   79 1    
    18    8   80 1    
    19    9   10 ar   
    20    9   14 ar   
    21   10   11 ar   
    22   10   81 1    
    23   11   12 ar   
    24   11   71 1    
    25   12   13 ar   
    26   12   82 1    
    27   13   14 ar   
    28   13   15 1    
    29   14   83 1    
    30   15   16 1    
    31   15   84 1    
    32   15   85 1    
    33   16   17 1    
    34   17   18 1    
    35   17   86 1    
    36   17   87 1    
    37   18   19 1    
    38   18   37 1    
    39   18   88 1    
    40   19   20 am   BACKBONE|DICT|INTERRES
    41   19   89 1    
    42   20   21 2    
    43   20   22 1    
    44   22   23 1    
    45   22   24 1    
    46   22   90 1    
    47   23   91 1    
    48   23   92 1    
    49   23   93 1    
    50   24   25 am   BACKBONE|DICT|INTERRES
    51   24   94 1    
    52   25   26 2    
    53   25   27 1    
    54   27   28 1    
    55   27   29 1    
    56   27   95 1    
    57   28   96 1    
    58   28   97 1    
    59   28   98 1    
    60   29   30 am   BACKBONE|DICT|INTERRES
    61   29   99 1    
    62   30   31 2    
    63   30   32 1    
    64   32   33 1    
    65   32   34 1    
    66   32  100 1    
    67   33  101 1    
    68   33  102 1    
    69   33  103 1    
    70   34   35 am   BACKBONE|DICT|INTERRES
    71   34  104 1    
    72   35   36 2    
    73   37   38 2    
    74   37   39 am   BACKBONE|DICT|INTERRES
    75   39   40 1    
    76   39  105 1    
    77   40   41 1    
    78   40   42 1    
    79   40  106 1    
    80   41  107 1    
    81   41  108 1    
    82   41  109 1    
    83   42   43 2    
    84   42   44 am   BACKBONE|DICT|INTERRES
    85   44   45 1    
    86   44  110 1    
    87   45   46 1    
    88   45   47 1    
    89   45  111 1    
    90   46  112 1    
    91   46  113 1    
    92   46  114 1    
    93   47   48 2    
    94   47   49 am   BACKBONE|DICT|INTERRES
    95   49   50 1    
    96   49  115 1    
    97   50   51 1    
    98   50   52 1    
    99   50  116 1    
   100   51  117 1    
   101   51  118 1    
   102   51  119 1    
   103   52   53 2    
   104   52   54 am   BACKBONE|DICT|INTERRES
   105   54   55 1    
   106   54  120 1    
   107   55   56 1    
   108   55   57 1    
   109   55  121 1    
   110   56  122 1    
   111   56  123 1    
   112   56  124 1    
   113   57   58 2    
   114   57   59 am   BACKBONE|DICT|INTERRES
   115   59   60 1    
   116   59  125 1    
   117   60   61 1    
   118   60   62 1    
   119   60  126 1    
   120   61  127 1    
   121   61  128 1    
   122   61  129 1    
   123   62   63 2    
   124   62   64 am   BACKBONE|DICT|INTERRES
   125   64   65 1    
   126   64  130 1    
   127   65   66 1    
   128   65   69 1    
   129   65  131 1    
   130   66   67 am   BACKBONE|DICT|INTERRES
   131   66   68 2    
   132   67  132 1    
   133   67  133 1    
   134   69   70 1    
   135   69  134 1    
   136   69  135 1    
   137   70   71 1    
   138   71  136 1    
   139   71  137 1    
@<TRIPOS>SUBSTRUCTURE
     1 UNK         1 GROUP             0       ****    0 ROOT    
