@<TRIPOS>MOLECULE
3R136
137   139    1
SMALL
USER_CHARGES


@<TRIPOS>ATOM
      1 CA         28.5895   23.8911   -3.5996 C.3       0 UNK        -0.1979 
      2 C          28.4884   23.1303   -2.2861 C.2       0 UNK         0.4864 
      3 O          28.1048   21.9592   -2.2858 O.2       0 UNK        -0.5359 
      4 N          28.8121   23.7978   -1.1706 N.am      1 UNK        -0.4318 
      5 CA         28.7743   23.3224    0.2183 C.3       1 UNK         0.0824 
      6 C6         29.6297   22.0606    0.5048 C.3       12 UNK        -0.0944 
      7 S7         31.3951   22.3194    0.1258 S.3       12 UNK        -0.2672 
      8 C8         32.1403   22.3133    1.7860 C.3       12 UNK         0.0333 
      9 C9         31.9732   23.6478    2.4989 C.ar      12 UNK        -0.0807 
     10 C10        32.9240   24.6571    2.3154 C.ar      12 UNK        -0.0894 
     11 C11        32.8265   25.8611    3.0181 C.ar      12 UNK        -0.0804 
     12 C12        31.7612   26.0556    3.8997 C.ar      12 UNK        -0.0824 
     13 C13        30.7848   25.0693    4.0691 C.ar      12 UNK        -0.0762 
     14 C14        30.8989   23.8633    3.3698 C.ar      12 UNK        -0.0782 
     15 C15        29.6183   25.3056    5.0205 C.3       12 UNK         0.0230 
     16 S16        28.1509   25.9714    4.1657 S.3       12 UNK        -0.2608 
     17 C17        28.7772   27.5634    3.5334 C.3       12 UNK        -0.0989 
     18 CA         29.0917   27.4803    2.0150 C.3       5 UNK         0.0716 
     19 N          27.8465   27.4235    1.2363 N.am      5 UNK        -0.4135 
     20 C          27.7095   26.9991   -0.0249 C.2       4 UNK         0.5031 
     21 O          28.6517   26.6067   -0.7180 O.2       4 UNK        -0.5229 
     22 CA         26.2830   26.9997   -0.5869 C.3       4 UNK         0.0329 
     23 CB         26.2059   26.4916   -2.0417 C.3       4 UNK        -0.2001 
     24 N          25.4187   26.1915    0.2712 N.am      4 UNK        -0.4303 
     25 C          24.0871   26.3153    0.3571 C.2       3 UNK         0.5044 
     26 O          23.4497   27.2052   -0.2094 O.2       3 UNK        -0.5152 
     27 CA         23.3448   25.2640    1.2121 C.3       3 UNK         0.0319 
     28 CB         21.8533   25.1284    0.8371 C.3       3 UNK        -0.2001 
     29 N          24.0069   23.9521    1.2113 N.am      3 UNK        -0.4354 
     30 C          24.2607   23.1684    0.1514 C.2       2 UNK         0.4964 
     31 O          23.8763   23.3987   -0.9965 O.2       2 UNK        -0.5047 
     32 CA         25.1626   21.9506    0.4200 C.3       2 UNK         0.0288 
     33 CB         24.7225   20.7217   -0.3954 C.3       2 UNK        -0.2113 
     34 N          26.5640   22.2483    0.1127 N.am      2 UNK        -0.4145 
     35 C          27.3299   23.1626    0.7241 C.2       1 UNK         0.5006 
     36 O          26.9319   23.8869    1.6365 O.2       1 UNK        -0.5103 
     37 C          30.0417   28.6063    1.5390 C.2       5 UNK         0.5055 
     38 O          30.4519   29.4495    2.3381 O.2       5 UNK        -0.5220 
     39 N          30.3556   28.6241    0.2347 N.am      6 UNK        -0.4450 
     40 CA         31.2159   29.5884   -0.4686 C.3       6 UNK         0.0367 
     41 CB         32.6888   29.3860   -0.0539 C.3       6 UNK        -0.1929 
     42 C          30.7616   31.0566   -0.3149 C.2       6 UNK         0.5070 
     43 O          31.5943   31.9635   -0.3633 O.2       6 UNK        -0.5237 
     44 N          29.4548   31.2593   -0.0837 N.am      7 UNK        -0.4739 
     45 CA         28.7441   32.5014    0.2573 C.3       7 UNK         0.0276 
     46 CB         28.8407   33.5370   -0.8800 C.3       7 UNK        -0.1927 
     47 C          29.1481   33.1248    1.6091 C.2       7 UNK         0.5013 
     48 O          28.2693   33.5186    2.3763 O.2       7 UNK        -0.5193 
     49 N          30.4559   33.2193    1.8704 N.am      8 UNK        -0.4253 
     50 CA         31.0447   33.8705    3.0395 C.3       8 UNK         0.0242 
     51 CB         32.4901   34.2736    2.7007 C.3       8 UNK        -0.2000 
     52 C          31.0238   33.0212    4.3215 C.2       8 UNK         0.4948 
     53 O          31.1189   33.6029    5.4030 O.2       8 UNK        -0.5275 
     54 N          30.9493   31.6842    4.1949 N.am      9 UNK        -0.4246 
     55 CA         31.0867   30.6943    5.2768 C.3       9 UNK         0.0261 
     56 CB         29.8731   30.7405    6.2290 C.3       9 UNK        -0.1959 
     57 C          32.4431   30.7938    6.0068 C.2       9 UNK         0.5033 
     58 O          32.5023   30.6731    7.2315 O.2       9 UNK        -0.5390 
     59 N          33.5096   31.0324    5.2296 N.am      10 UNK        -0.4215 
     60 CA         34.8720   31.2715    5.7149 C.3       10 UNK         0.0240 
     61 CB         35.6860   31.9391    4.5934 C.3       10 UNK        -0.1982 
     62 C          35.5944   30.0115    6.2258 C.2       10 UNK         0.4970 
     63 O          36.5617   30.1449    6.9768 O.2       10 UNK        -0.4916 
     64 N          35.1405   28.8266    5.7984 N.am      11 UNK        -0.4279 
     65 CA         35.6802   27.5197    6.1996 C.3       11 UNK         0.1003 
     66 C          35.4854   27.2325    7.7141 C.2       11 UNK         0.5709 
     67 N          36.4721   26.6314    8.3653 N.am      11 UNK        -0.7358 
     68 O          34.4338   27.5071    8.2889 O.2       11 UNK        -0.4999 
     69 C69        35.0735   26.3741    5.3515 C.3       12 UNK        -0.0954 
     70 S70        35.4746   26.5138    3.5753 S.3       12 UNK        -0.2268 
     71 C71        33.8710   26.9526    2.8299 C.3       12 UNK         0.0203 
     72 H72        27.6230   23.9016   -4.1025 H         1 UNK         0.0888 
     73 H73        28.9038   24.9239   -3.4476 H         1 UNK         0.0888 
     74 H74        29.3123   23.4089   -4.2571 H         1 UNK         0.0888 
     75 H75        29.0391   24.7860   -1.2473 H         1 UNK         0.3017 
     76 H76        29.2051   24.1356    0.8059 H         1 UNK         0.0873 
     77 H77        29.5261   21.7611    1.5489 H         1 UNK         0.0745 
     78 H78        29.2819   21.2070   -0.0784 H         1 UNK         0.0745 
     79 H79        33.2031   22.0879    1.6846 H         1 UNK         0.0705 
     80 H80        31.7219   21.5012    2.3826 H         1 UNK         0.0705 
     81 H81        33.7549   24.4979    1.6415 H         1 UNK         0.1334 
     82 H82        31.6937   26.9805    4.4545 H         1 UNK         0.1417 
     83 H83        30.1558   23.0909    3.5134 H         1 UNK         0.1562 
     84 H84        29.9107   25.9867    5.8214 H         1 UNK         0.0748 
     85 H85        29.3449   24.3683    5.5074 H         1 UNK         0.0748 
     86 H86        29.6475   27.8490    4.1221 H         1 UNK         0.0940 
     87 H87        28.0367   28.3403    3.7314 H         1 UNK         0.0940 
     88 H88        29.6370   26.5514    1.8340 H         1 UNK         0.0703 
     89 H89        27.0146   27.7158    1.7280 H         1 UNK         0.3081 
     90 H90        25.9424   28.0371   -0.5673 H         1 UNK         0.0719 
     91 H91        26.4538   25.4326   -2.1083 H         1 UNK         0.0809 
     92 H92        25.2053   26.6217   -2.4539 H         1 UNK         0.0809 
     93 H93        26.8933   27.0362   -2.6903 H         1 UNK         0.0809 
     94 H94        25.8738   25.4500    0.7966 H         1 UNK         0.2990 
     95 H95        23.3934   25.6273    2.2396 H         1 UNK         0.0690 
     96 H96        21.3533   24.3869    1.4601 H         1 UNK         0.0788 
     97 H97        21.7224   24.8349   -0.2049 H         1 UNK         0.0788 
     98 H98        21.3271   26.0736    0.9761 H         1 UNK         0.0788 
     99 H99        24.4293   23.6882    2.0921 H         1 UNK         0.2993 
    100 H100       25.0941   21.6926    1.4790 H         1 UNK         0.0949 
    101 H101       24.8288   20.8883   -1.4684 H         1 UNK         0.0767 
    102 H102       25.3112   19.8420   -0.1343 H         1 UNK         0.0767 
    103 H103       23.6761   20.4804   -0.2037 H         1 UNK         0.0767 
    104 H104       26.9652   21.7886   -0.7003 H         1 UNK         0.3013 
    105 H105       29.9358   27.8957   -0.3409 H         1 UNK         0.3121 
    106 H106       31.1338   29.3570   -1.5315 H         1 UNK         0.0774 
    107 H107       33.3558   30.0082   -0.6518 H         1 UNK         0.0815 
    108 H108       32.8535   29.6446    0.9926 H         1 UNK         0.0815 
    109 H109       33.0006   28.3518   -0.1981 H         1 UNK         0.0815 
    110 H110       28.8831   30.4278   -0.0445 H         1 UNK         0.2987 
    111 H111       27.6934   32.2214    0.3517 H         1 UNK         0.0949 
    112 H112       28.2330   34.4152   -0.6577 H         1 UNK         0.0806 
    113 H113       29.8629   33.8837   -1.0344 H         1 UNK         0.0806 
    114 H114       28.4809   33.1248   -1.8226 H         1 UNK         0.0806 
    115 H115       31.0916   32.8608    1.1602 H         1 UNK         0.3010 
    116 H116       30.4782   34.7814    3.2459 H         1 UNK         0.0829 
    117 H117       32.5217   34.9594    1.8538 H         1 UNK         0.0813 
    118 H118       32.9648   34.7796    3.5428 H         1 UNK         0.0813 
    119 H119       33.1040   33.4068    2.4523 H         1 UNK         0.0813 
    120 H120       30.8347   31.2842    3.2686 H         1 UNK         0.3038 
    121 H121       31.0861   29.7129    4.8042 H         1 UNK         0.0769 
    122 H122       29.9158   29.9284    6.9558 H         1 UNK         0.0811 
    123 H123       28.9372   30.6342    5.6804 H         1 UNK         0.0811 
    124 H124       29.8311   31.6753    6.7886 H         1 UNK         0.0811 
    125 H125       33.3604   31.1237    4.2353 H         1 UNK         0.3204 
    126 H126       34.8128   31.9699    6.5528 H         1 UNK         0.0748 
    127 H127       36.6992   32.1667    4.9280 H         1 UNK         0.0771 
    128 H128       35.7699   31.2960    3.7161 H         1 UNK         0.0771 
    129 H129       35.2331   32.8801    4.2798 H         1 UNK         0.0771 
    130 H130       34.3331   28.8093    5.1977 H         1 UNK         0.2980 
    131 H131       36.7540   27.5485    6.0034 H         1 UNK         0.0545 
    132 H132       36.3562   26.4222    9.3446 H         1 UNK         0.3459 
    133 H133       37.3333   26.3894    7.9002 H         1 UNK         0.3459 
    134 H134       33.9945   26.3256    5.4973 H         1 UNK         0.0616 
    135 H135       35.4623   25.4103    5.6857 H         1 UNK         0.0616 
    136 H136       33.5253   27.9008    3.2440 H         1 UNK         0.0634 
    137 H137       34.0190   27.1233    1.7630 H         1 UNK         0.0634 
@<TRIPOS>BOND
     1    1    2 1    
     2    1   72 1    
     3    1   73 1    
     4    1   74 1    
     5    2    3 2    
     6    2    4 am   BACKBONE|DICT|INTERRES
     7    4    5 1    
     8    4   75 1    
     9    5    6 1    
    10    5   35 1    
    11    5   76 1    
    12    6    7 1    
    13    6   77 1    
    14    6   78 1    
    15    7    8 1    
    16    8    9 1    
    17    8   79 1    
    18    8   80 1    
    19    9   10 ar   
    20    9   14 ar   
    21   10   11 ar   
    22   10   81 1    
    23   11   12 ar   
    24   11   71 1    
    25   12   13 ar   
    26   12   82 1    
    27   13   14 ar   
    28   13   15 1    
    29   14   83 1    
    30   15   16 1    
    31   15   84 1    
    32   15   85 1    
    33   16   17 1    
    34   17   18 1    
    35   17   86 1    
    36   17   87 1    
    37   18   19 1    
    38   18   37 1    
    39   18   88 1    
    40   19   20 am   BACKBONE|DICT|INTERRES
    41   19   89 1    
    42   20   21 2    
    43   20   22 1    
    44   22   23 1    
    45   22   24 1    
    46   22   90 1    
    47   23   91 1    
    48   23   92 1    
    49   23   93 1    
    50   24   25 am   BACKBONE|DICT|INTERRES
    51   24   94 1    
    52   25   26 2    
    53   25   27 1    
    54   27   28 1    
    55   27   29 1    
    56   27   95 1    
    57   28   96 1    
    58   28   97 1    
    59   28   98 1    
    60   29   30 am   BACKBONE|DICT|INTERRES
    61   29   99 1    
    62   30   31 2    
    63   30   32 1    
    64   32   33 1    
    65   32   34 1    
    66   32  100 1    
    67   33  101 1    
    68   33  102 1    
    69   33  103 1    
    70   34   35 am   BACKBONE|DICT|INTERRES
    71   34  104 1    
    72   35   36 2    
    73   37   38 2    
    74   37   39 am   BACKBONE|DICT|INTERRES
    75   39   40 1    
    76   39  105 1    
    77   40   41 1    
    78   40   42 1    
    79   40  106 1    
    80   41  107 1    
    81   41  108 1    
    82   41  109 1    
    83   42   43 2    
    84   42   44 am   BACKBONE|DICT|INTERRES
    85   44   45 1    
    86   44  110 1    
    87   45   46 1    
    88   45   47 1    
    89   45  111 1    
    90   46  112 1    
    91   46  113 1    
    92   46  114 1    
    93   47   48 2    
    94   47   49 am   BACKBONE|DICT|INTERRES
    95   49   50 1    
    96   49  115 1    
    97   50   51 1    
    98   50   52 1    
    99   50  116 1    
   100   51  117 1    
   101   51  118 1    
   102   51  119 1    
   103   52   53 2    
   104   52   54 am   BACKBONE|DICT|INTERRES
   105   54   55 1    
   106   54  120 1    
   107   55   56 1    
   108   55   57 1    
   109   55  121 1    
   110   56  122 1    
   111   56  123 1    
   112   56  124 1    
   113   57   58 2    
   114   57   59 am   BACKBONE|DICT|INTERRES
   115   59   60 1    
   116   59  125 1    
   117   60   61 1    
   118   60   62 1    
   119   60  126 1    
   120   61  127 1    
   121   61  128 1    
   122   61  129 1    
   123   62   63 2    
   124   62   64 am   BACKBONE|DICT|INTERRES
   125   64   65 1    
   126   64  130 1    
   127   65   66 1    
   128   65   69 1    
   129   65  131 1    
   130   66   67 am   BACKBONE|DICT|INTERRES
   131   66   68 2    
   132   67  132 1    
   133   67  133 1    
   134   69   70 1    
   135   69  134 1    
   136   69  135 1    
   137   70   71 1    
   138   71  136 1    
   139   71  137 1    
@<TRIPOS>SUBSTRUCTURE
     1 UNK         1 GROUP             0       ****    0 ROOT    
