@<TRIPOS>MOLECULE
3R136
137   139    1
SMALL
USER_CHARGES


@<TRIPOS>ATOM
      1 CA         29.6616   22.4463   -4.3838 C.3       0 UNK        -0.1979 
      2 C          29.2233   23.6762   -3.6025 C.2       0 UNK         0.4864 
      3 O          28.6251   24.5853   -4.1790 O.2       0 UNK        -0.5359 
      4 N          29.5132   23.7082   -2.2945 N.am      1 UNK        -0.4318 
      5 CA         29.2028   24.8262   -1.3900 C.3       1 UNK         0.0824 
      6 C6         30.0317   24.7686   -0.0806 C.3       12 UNK        -0.0944 
      7 S7         31.8215   24.5339   -0.3474 S.3       12 UNK        -0.2672 
      8 C8         32.2275   23.3142    0.9426 C.3       12 UNK         0.0333 
      9 C9         32.1630   23.9131    2.3422 C.ar      12 UNK        -0.0807 
     10 C10        33.2364   24.6654    2.8320 C.ar      12 UNK        -0.0894 
     11 C11        33.2067   25.1851    4.1299 C.ar      12 UNK        -0.0804 
     12 C12        32.0873   24.9559    4.9336 C.ar      12 UNK        -0.0824 
     13 C13        31.0018   24.2155    4.4557 C.ar      12 UNK        -0.0762 
     14 C14        31.0493   23.6893    3.1602 C.ar      12 UNK        -0.0782 
     15 C15        29.8005   23.9662    5.3636 C.3       12 UNK         0.0230 
     16 S16        28.2036   24.4757    4.6407 S.3       12 UNK        -0.2608 
     17 C17        28.4823   26.2333    4.2332 C.3       12 UNK        -0.0989 
     18 CA         27.9516   26.5594    2.8136 C.3       5 UNK         0.0716 
     19 N          26.4900   26.4732    2.7027 N.am      5 UNK        -0.4135 
     20 C          25.5917   27.3096    3.2492 C.2       4 UNK         0.5031 
     21 O          25.8864   28.2491    3.9890 O.2       4 UNK        -0.5229 
     22 CA         24.1060   27.0949    2.9004 C.3       4 UNK         0.0329 
     23 CB         23.6574   28.1230    1.8479 C.3       4 UNK        -0.2001 
     24 N          23.8089   25.7525    2.4020 N.am      4 UNK        -0.4303 
     25 C          23.7664   24.6430    3.1527 C.2       3 UNK         0.5044 
     26 O          23.8732   24.6398    4.3792 O.2       3 UNK        -0.5152 
     27 CA         23.5926   23.3066    2.4038 C.3       3 UNK         0.0319 
     28 CB         22.1262   22.8479    2.4561 C.3       3 UNK        -0.2001 
     29 N          24.0378   23.3439    1.0033 N.am      3 UNK        -0.4354 
     30 C          25.2969   23.5802    0.6068 C.2       2 UNK         0.4964 
     31 O          26.2245   23.7755    1.3949 O.2       2 UNK        -0.5047 
     32 CA         25.5378   23.6160   -0.9152 C.3       2 UNK         0.0288 
     33 CB         24.6297   24.6486   -1.6207 C.3       2 UNK        -0.2113 
     34 N          26.9487   23.8346   -1.2633 N.am      2 UNK        -0.4145 
     35 C          27.6983   24.9294   -1.0472 C.2       1 UNK         0.5006 
     36 O          27.2630   25.9791   -0.5677 O.2       1 UNK        -0.5103 
     37 C          28.4779   27.8961    2.2461 C.2       5 UNK         0.5055 
     38 O          29.1846   28.6390    2.9328 O.2       5 UNK        -0.5220 
     39 N          28.0982   28.1764    0.9916 N.am      6 UNK        -0.4450 
     40 CA         28.5583   29.3166    0.2052 C.3       6 UNK         0.0367 
     41 CB         27.5869   29.5463   -0.9655 C.3       6 UNK        -0.1929 
     42 C          29.9864   29.0343   -0.2811 C.2       6 UNK         0.5070 
     43 O          30.1734   28.2661   -1.2259 O.2       6 UNK        -0.5237 
     44 N          30.9647   29.6155    0.4135 N.am      7 UNK        -0.4739 
     45 CA         32.3906   29.3558    0.2526 C.3       7 UNK         0.0276 
     46 CB         32.7517   28.0855    1.0438 C.3       7 UNK        -0.1927 
     47 C          33.1849   30.5765    0.7342 C.2       7 UNK         0.5013 
     48 O          32.5887   31.5377    1.2327 O.2       7 UNK        -0.5193 
     49 N          34.5146   30.5186    0.5720 N.am      8 UNK        -0.4253 
     50 CA         35.4745   31.5641    0.9420 C.3       8 UNK         0.0242 
     51 CB         36.9034   31.0597    0.6793 C.3       8 UNK        -0.2000 
     52 C          35.3184   32.0200    2.4033 C.2       8 UNK         0.4948 
     53 O          35.4323   31.1969    3.3132 O.2       8 UNK        -0.5275 
     54 N          35.0147   33.3139    2.5804 N.am      9 UNK        -0.4246 
     55 CA         34.7239   33.9957    3.8492 C.3       9 UNK         0.0261 
     56 CB         35.9733   34.0182    4.7570 C.3       9 UNK        -0.1959 
     57 C          33.4719   33.4717    4.5884 C.2       9 UNK         0.5033 
     58 O          33.3287   33.7518    5.7801 O.2       9 UNK        -0.5390 
     59 N          32.5859   32.7467    3.8822 N.am      10 UNK        -0.4215 
     60 CA         31.3592   32.1099    4.3785 C.3       10 UNK         0.0240 
     61 CB         30.2922   33.1721    4.7202 C.3       10 UNK        -0.1982 
     62 C          31.6341   31.1294    5.5353 C.2       10 UNK         0.4970 
     63 O          31.0039   31.2241    6.5903 O.2       10 UNK        -0.4916 
     64 N          32.5942   30.2207    5.3171 N.am      11 UNK        -0.4279 
     65 CA         33.0541   29.2170    6.2908 C.3       11 UNK         0.1003 
     66 C          32.0057   28.1577    6.7442 C.2       11 UNK         0.5709 
     67 N          30.8425   28.0484    6.1148 N.am      11 UNK        -0.7358 
     68 O          32.2501   27.4283    7.7024 O.2       11 UNK        -0.4999 
     69 C69        34.3944   28.5696    5.8495 C.3       12 UNK        -0.0954 
     70 S70        34.3169   27.7236    4.2305 S.3       12 UNK        -0.2268 
     71 C71        34.3961   25.9606    4.6794 C.3       12 UNK         0.0203 
     72 H72        30.3338   22.7354   -5.1912 H         1 UNK         0.0888 
     73 H73        30.1813   21.7254   -3.7529 H         1 UNK         0.0888 
     74 H74        28.7954   21.9512   -4.8222 H         1 UNK         0.0888 
     75 H75        30.0357   22.9485   -1.8816 H         1 UNK         0.3017 
     76 H76        29.4683   25.7491   -1.9100 H         1 UNK         0.0873 
     77 H77        29.6569   23.9747    0.5678 H         1 UNK         0.0745 
     78 H78        29.9170   25.7006    0.4740 H         1 UNK         0.0745 
     79 H79        33.2339   22.9352    0.7588 H         1 UNK         0.0705 
     80 H80        31.5620   22.4538    0.8571 H         1 UNK         0.0705 
     81 H81        34.1006   24.8380    2.2051 H         1 UNK         0.1334 
     82 H82        32.0675   25.3469    5.9410 H         1 UNK         0.1417 
     83 H83        30.2174   23.1028    2.7945 H         1 UNK         0.1562 
     84 H84        29.9234   24.4821    6.3173 H         1 UNK         0.0748 
     85 H85        29.7537   22.9019    5.5975 H         1 UNK         0.0748 
     86 H86        29.5508   26.4418    4.2877 H         1 UNK         0.0940 
     87 H87        28.0098   26.8633    4.9881 H         1 UNK         0.0940 
     88 H88        28.3373   25.7901    2.1449 H         1 UNK         0.0703 
     89 H89        26.1578   25.6971    2.1409 H         1 UNK         0.3081 
     90 H90        23.5267   27.2600    3.8115 H         1 UNK         0.0719 
     91 H91        24.2027   28.0060    0.9101 H         1 UNK         0.0809 
     92 H92        22.5924   28.0338    1.6327 H         1 UNK         0.0809 
     93 H93        23.8304   29.1415    2.1989 H         1 UNK         0.0809 
     94 H94        23.6886   25.6538    1.4048 H         1 UNK         0.2990 
     95 H95        24.2022   22.5648    2.9242 H         1 UNK         0.0690 
     96 H96        22.0023   21.8600    2.0120 H         1 UNK         0.0788 
     97 H97        21.4672   23.5396    1.9298 H         1 UNK         0.0788 
     98 H98        21.7740   22.7832    3.4867 H         1 UNK         0.0788 
     99 H99        23.3291   23.1815    0.3020 H         1 UNK         0.2993 
    100 H100       25.2848   22.6249   -1.2952 H         1 UNK         0.0949 
    101 H101       24.8644   24.7179   -2.6831 H         1 UNK         0.0767 
    102 H102       23.5775   24.3728   -1.5464 H         1 UNK         0.0767 
    103 H103       24.7339   25.6464   -1.1929 H         1 UNK         0.0767 
    104 H104       27.4282   23.0272   -1.6344 H         1 UNK         0.3013 
    105 H105       27.5965   27.4568    0.4727 H         1 UNK         0.3121 
    106 H106       28.5564   30.2105    0.8329 H         1 UNK         0.0774 
    107 H107       27.9121   30.3855   -1.5814 H         1 UNK         0.0815 
    108 H108       27.5187   28.6716   -1.6142 H         1 UNK         0.0815 
    109 H109       26.5830   29.7743   -0.6073 H         1 UNK         0.0815 
    110 H110       30.7404   30.2758    1.1472 H         1 UNK         0.2987 
    111 H111       32.6186   29.2083   -0.8055 H         1 UNK         0.0949 
    112 H112       33.8204   27.8713    1.0175 H         1 UNK         0.0806 
    113 H113       32.4541   28.1748    2.0886 H         1 UNK         0.0806 
    114 H114       32.2413   27.2139    0.6382 H         1 UNK         0.0806 
    115 H115       34.9097   29.6783    0.1761 H         1 UNK         0.3010 
    116 H116       35.2904   32.4158    0.2837 H         1 UNK         0.0829 
    117 H117       37.0510   30.8063   -0.3707 H         1 UNK         0.0813 
    118 H118       37.6396   31.8236    0.9334 H         1 UNK         0.0813 
    119 H119       37.1338   30.1753    1.2753 H         1 UNK         0.0813 
    120 H120       34.9201   33.8914    1.7555 H         1 UNK         0.3038 
    121 H121       34.4953   35.0293    3.5850 H         1 UNK         0.0769 
    122 H122       35.8172   34.6602    5.6250 H         1 UNK         0.0811 
    123 H123       36.8440   34.4029    4.2260 H         1 UNK         0.0811 
    124 H124       36.2197   33.0239    5.1309 H         1 UNK         0.0811 
    125 H125       32.7985   32.5462    2.9078 H         1 UNK         0.3204 
    126 H126       30.9690   31.5074    3.5566 H         1 UNK         0.0748 
    127 H127       29.3478   32.7010    4.9959 H         1 UNK         0.0771 
    128 H128       30.5984   33.8014    5.5566 H         1 UNK         0.0771 
    129 H129       30.0929   33.8213    3.8676 H         1 UNK         0.0771 
    130 H130       33.0830   30.2219    4.4331 H         1 UNK         0.2980 
    131 H131       33.2761   29.7797    7.1994 H         1 UNK         0.0545 
    132 H132       30.1699   27.3783    6.4469 H         1 UNK         0.3459 
    133 H133       30.6276   28.6363    5.3248 H         1 UNK         0.3459 
    134 H134       35.1524   29.3498    5.7627 H         1 UNK         0.0616 
    135 H135       34.7719   27.8931    6.6176 H         1 UNK         0.0616 
    136 H136       34.4471   25.8383    5.7618 H         1 UNK         0.0634 
    137 H137       35.3238   25.5421    4.2864 H         1 UNK         0.0634 
@<TRIPOS>BOND
     1    1    2 1    
     2    1   72 1    
     3    1   73 1    
     4    1   74 1    
     5    2    3 2    
     6    2    4 am   BACKBONE|DICT|INTERRES
     7    4    5 1    
     8    4   75 1    
     9    5    6 1    
    10    5   35 1    
    11    5   76 1    
    12    6    7 1    
    13    6   77 1    
    14    6   78 1    
    15    7    8 1    
    16    8    9 1    
    17    8   79 1    
    18    8   80 1    
    19    9   10 ar   
    20    9   14 ar   
    21   10   11 ar   
    22   10   81 1    
    23   11   12 ar   
    24   11   71 1    
    25   12   13 ar   
    26   12   82 1    
    27   13   14 ar   
    28   13   15 1    
    29   14   83 1    
    30   15   16 1    
    31   15   84 1    
    32   15   85 1    
    33   16   17 1    
    34   17   18 1    
    35   17   86 1    
    36   17   87 1    
    37   18   19 1    
    38   18   37 1    
    39   18   88 1    
    40   19   20 am   BACKBONE|DICT|INTERRES
    41   19   89 1    
    42   20   21 2    
    43   20   22 1    
    44   22   23 1    
    45   22   24 1    
    46   22   90 1    
    47   23   91 1    
    48   23   92 1    
    49   23   93 1    
    50   24   25 am   BACKBONE|DICT|INTERRES
    51   24   94 1    
    52   25   26 2    
    53   25   27 1    
    54   27   28 1    
    55   27   29 1    
    56   27   95 1    
    57   28   96 1    
    58   28   97 1    
    59   28   98 1    
    60   29   30 am   BACKBONE|DICT|INTERRES
    61   29   99 1    
    62   30   31 2    
    63   30   32 1    
    64   32   33 1    
    65   32   34 1    
    66   32  100 1    
    67   33  101 1    
    68   33  102 1    
    69   33  103 1    
    70   34   35 am   BACKBONE|DICT|INTERRES
    71   34  104 1    
    72   35   36 2    
    73   37   38 2    
    74   37   39 am   BACKBONE|DICT|INTERRES
    75   39   40 1    
    76   39  105 1    
    77   40   41 1    
    78   40   42 1    
    79   40  106 1    
    80   41  107 1    
    81   41  108 1    
    82   41  109 1    
    83   42   43 2    
    84   42   44 am   BACKBONE|DICT|INTERRES
    85   44   45 1    
    86   44  110 1    
    87   45   46 1    
    88   45   47 1    
    89   45  111 1    
    90   46  112 1    
    91   46  113 1    
    92   46  114 1    
    93   47   48 2    
    94   47   49 am   BACKBONE|DICT|INTERRES
    95   49   50 1    
    96   49  115 1    
    97   50   51 1    
    98   50   52 1    
    99   50  116 1    
   100   51  117 1    
   101   51  118 1    
   102   51  119 1    
   103   52   53 2    
   104   52   54 am   BACKBONE|DICT|INTERRES
   105   54   55 1    
   106   54  120 1    
   107   55   56 1    
   108   55   57 1    
   109   55  121 1    
   110   56  122 1    
   111   56  123 1    
   112   56  124 1    
   113   57   58 2    
   114   57   59 am   BACKBONE|DICT|INTERRES
   115   59   60 1    
   116   59  125 1    
   117   60   61 1    
   118   60   62 1    
   119   60  126 1    
   120   61  127 1    
   121   61  128 1    
   122   61  129 1    
   123   62   63 2    
   124   62   64 am   BACKBONE|DICT|INTERRES
   125   64   65 1    
   126   64  130 1    
   127   65   66 1    
   128   65   69 1    
   129   65  131 1    
   130   66   67 am   BACKBONE|DICT|INTERRES
   131   66   68 2    
   132   67  132 1    
   133   67  133 1    
   134   69   70 1    
   135   69  134 1    
   136   69  135 1    
   137   70   71 1    
   138   71  136 1    
   139   71  137 1    
@<TRIPOS>SUBSTRUCTURE
     1 UNK         1 GROUP             0       ****    0 ROOT    
