@<TRIPOS>MOLECULE
3R136
137   139    1
SMALL
USER_CHARGES


@<TRIPOS>ATOM
      1 CA         34.2142   23.3878   -0.3185 C.3       0 UNK        -0.1979 
      2 C          32.8211   22.7766   -0.3173 C.2       0 UNK         0.4864 
      3 O          32.4812   22.0325   -1.2379 O.2       0 UNK        -0.5359 
      4 N          32.0186   23.0953    0.7092 N.am      1 UNK        -0.4318 
      5 CA         30.6313   22.6483    0.9006 C.3       1 UNK         0.0824 
      6 C6         30.5302   21.1209    1.1834 C.3       12 UNK        -0.0944 
      7 S7         29.0671   20.6778    2.1843 S.3       12 UNK        -0.2672 
      8 C8         29.7499   20.6500    3.8753 C.3       12 UNK         0.0333 
      9 C9         30.2256   22.0289    4.3077 C.ar      12 UNK        -0.0807 
     10 C10        31.5923   22.3132    4.3832 C.ar      12 UNK        -0.0894 
     11 C11        32.0286   23.5985    4.7148 C.ar      12 UNK        -0.0804 
     12 C12        31.0918   24.6026    4.9758 C.ar      12 UNK        -0.0824 
     13 C13        29.7230   24.3271    4.9116 C.ar      12 UNK        -0.0762 
     14 C14        29.2963   23.0343    4.5918 C.ar      12 UNK        -0.0782 
     15 C15        28.7024   25.4269    5.1669 C.3       12 UNK         0.0230 
     16 S16        27.7763   25.8438    3.6558 S.3       12 UNK        -0.2608 
     17 C17        29.0631   26.6393    2.6255 C.3       12 UNK        -0.0989 
     18 CA         28.6983   28.0737    2.1645 C.3       5 UNK         0.0716 
     19 N          27.4011   28.1245    1.4748 N.am      5 UNK        -0.4135 
     20 C          26.7928   29.2192    0.9920 C.2       4 UNK         0.5031 
     21 O          27.2362   30.3611    1.1237 O.2       4 UNK        -0.5229 
     22 CA         25.4793   28.9946    0.2253 C.3       4 UNK         0.0329 
     23 CB         25.0221   30.2355   -0.5647 C.3       4 UNK        -0.2001 
     24 N          25.6290   27.8658   -0.6913 N.am      4 UNK        -0.4303 
     25 C          24.7651   26.8521   -0.8255 C.2       3 UNK         0.5044 
     26 O          23.6867   26.7857   -0.2342 O.2       3 UNK        -0.5152 
     27 CA         25.1727   25.7043   -1.7721 C.3       3 UNK         0.0319 
     28 CB         24.4752   25.8620   -3.1332 C.3       3 UNK        -0.2001 
     29 N          26.6200   25.5632   -1.9877 N.am      3 UNK        -0.4354 
     30 C          27.5204   25.3026   -1.0294 C.2       2 UNK         0.4964 
     31 O          27.2367   25.2151    0.1665 O.2       2 UNK        -0.5047 
     32 CA         28.9872   25.1920   -1.4847 C.3       2 UNK         0.0288 
     33 CB         29.5902   26.5937   -1.6856 C.3       2 UNK        -0.2113 
     34 N          29.8182   24.4621   -0.5247 N.am      2 UNK        -0.4145 
     35 C          29.6988   23.1600   -0.2240 C.2       1 UNK         0.5006 
     36 O          28.9246   22.3952   -0.8051 O.2       1 UNK        -0.5103 
     37 C          28.8588   29.0830    3.3182 C.2       5 UNK         0.5055 
     38 O          29.9094   29.7177    3.4147 O.2       5 UNK        -0.5220 
     39 N          27.8174   29.2279    4.1483 N.am      6 UNK        -0.4450 
     40 CA         27.7904   30.1399    5.2932 C.3       6 UNK         0.0367 
     41 CB         26.6006   29.7837    6.1983 C.3       6 UNK        -0.1929 
     42 C          27.7381   31.6240    4.8915 C.2       6 UNK         0.5070 
     43 O          28.3006   32.4566    5.6021 O.2       6 UNK        -0.5237 
     44 N          27.0775   31.9316    3.7665 N.am      7 UNK        -0.4739 
     45 CA         26.9891   33.2844    3.2103 C.3       7 UNK         0.0276 
     46 CB         25.7497   33.3942    2.3084 C.3       7 UNK        -0.1927 
     47 C          28.2608   33.6554    2.4340 C.2       7 UNK         0.5013 
     48 O          28.7298   34.7889    2.5406 O.2       7 UNK        -0.5193 
     49 N          28.8051   32.6848    1.6871 N.am      8 UNK        -0.4253 
     50 CA         30.0617   32.7989    0.9444 C.3       8 UNK         0.0242 
     51 CB         30.1591   31.6218   -0.0411 C.3       8 UNK        -0.2000 
     52 C          31.3095   32.8366    1.8463 C.2       8 UNK         0.4948 
     53 O          32.3553   33.3023    1.3923 O.2       8 UNK        -0.5275 
     54 N          31.1832   32.3201    3.0792 N.am      9 UNK        -0.4246 
     55 CA         32.2465   32.0534    4.0556 C.3       9 UNK         0.0261 
     56 CB         32.9092   33.3603    4.5405 C.3       9 UNK        -0.1959 
     57 C          33.2527   31.0134    3.5241 C.2       9 UNK         0.5033 
     58 O          34.4646   31.1776    3.6840 O.2       9 UNK        -0.5390 
     59 N          32.7228   29.9687    2.8747 N.am      10 UNK        -0.4215 
     60 CA         33.4940   28.8888    2.2645 C.3       10 UNK         0.0240 
     61 CB         32.6153   28.1510    1.2399 C.3       10 UNK        -0.1982 
     62 C          34.0037   27.9144    3.3339 C.2       10 UNK         0.4970 
     63 O          33.2373   27.5565    4.2311 O.2       10 UNK        -0.4916 
     64 N          35.2665   27.4880    3.1820 N.am      11 UNK        -0.4279 
     65 CA         35.9811   26.4791    3.9913 C.3       11 UNK         0.1003 
     66 C          35.9468   26.6583    5.5426 C.2       11 UNK         0.5709 
     67 N          35.7301   27.8625    6.0576 N.am      11 UNK        -0.7358 
     68 O          36.1674   25.7112    6.2939 O.2       11 UNK        -0.4999 
     69 C69        35.7776   25.0124    3.4880 C.3       12 UNK        -0.0954 
     70 S70        34.0647   24.4989    3.1316 S.3       12 UNK        -0.2268 
     71 C71        33.5119   23.9167    4.7568 C.3       12 UNK         0.0203 
     72 H72        34.2040   24.3980    0.0902 H         1 UNK         0.0888 
     73 H73        34.8936   22.7798    0.2784 H         1 UNK         0.0888 
     74 H74        34.6075   23.4437   -1.3333 H         1 UNK         0.0888 
     75 H75        32.3873   23.6844    1.4454 H         1 UNK         0.3017 
     76 H76        30.2987   23.1739    1.7962 H         1 UNK         0.0873 
     77 H77        30.5164   20.5483    0.2543 H         1 UNK         0.0745 
     78 H78        31.4172   20.7791    1.7187 H         1 UNK         0.0745 
     79 H79        30.5599   19.9208    3.9285 H         1 UNK         0.0705 
     80 H80        28.9783   20.3017    4.5635 H         1 UNK         0.0705 
     81 H81        32.3175   21.5433    4.1572 H         1 UNK         0.1334 
     82 H82        31.4336   25.6023    5.2104 H         1 UNK         0.1417 
     83 H83        28.2378   22.8214    4.5233 H         1 UNK         0.1562 
     84 H84        29.1788   26.3269    5.5599 H         1 UNK         0.0748 
     85 H85        27.9997   25.0923    5.9312 H         1 UNK         0.0748 
     86 H86        29.2158   26.0053    1.7535 H         1 UNK         0.0940 
     87 H87        30.0211   26.6357    3.1493 H         1 UNK         0.0940 
     88 H88        29.4339   28.3675    1.4140 H         1 UNK         0.0703 
     89 H89        26.9658   27.2234    1.3172 H         1 UNK         0.3081 
     90 H90        24.7213   28.7705    0.9786 H         1 UNK         0.0719 
     91 H91        25.7788   30.5596   -1.2803 H         1 UNK         0.0809 
     92 H92        24.1025   30.0376   -1.1155 H         1 UNK         0.0809 
     93 H93        24.8209   31.0725    0.1034 H         1 UNK         0.0809 
     94 H94        26.4912   27.8286   -1.2164 H         1 UNK         0.2990 
     95 H95        24.8217   24.7765   -1.3154 H         1 UNK         0.0690 
     96 H96        24.6653   25.0050   -3.7797 H         1 UNK         0.0788 
     97 H97        24.8080   26.7597   -3.6557 H         1 UNK         0.0788 
     98 H98        23.3935   25.9383   -3.0117 H         1 UNK         0.0788 
     99 H99        26.9388   25.6427   -2.9432 H         1 UNK         0.2993 
    100 H100       29.0148   24.6503   -2.4328 H         1 UNK         0.0949 
    101 H101       30.6226   26.5353   -2.0315 H         1 UNK         0.0767 
    102 H102       29.0350   27.1598   -2.4346 H         1 UNK         0.0767 
    103 H103       29.5790   27.1758   -0.7636 H         1 UNK         0.0767 
    104 H104       30.4964   25.0058   -0.0145 H         1 UNK         0.3013 
    105 H105       27.0033   28.6493    3.9980 H         1 UNK         0.3121 
    106 H106       28.7091   29.9880    5.8645 H         1 UNK         0.0774 
    107 H107       26.5723   30.4303    7.0766 H         1 UNK         0.0815 
    108 H108       25.6482   29.8980    5.6792 H         1 UNK         0.0815 
    109 H109       26.6681   28.7563    6.5567 H         1 UNK         0.0815 
    110 H110       26.6985   31.1817    3.2038 H         1 UNK         0.2987 
    111 H111       26.8757   33.9979    4.0300 H         1 UNK         0.0949 
    112 H112       25.8183   32.7320    1.4457 H         1 UNK         0.0806 
    113 H113       24.8380   33.1467    2.8524 H         1 UNK         0.0806 
    114 H114       25.6352   34.4103    1.9287 H         1 UNK         0.0806 
    115 H115       28.3049   31.8014    1.6051 H         1 UNK         0.3010 
    116 H116       30.0380   33.7294    0.3733 H         1 UNK         0.0829 
    117 H117       29.3145   31.6102   -0.7304 H         1 UNK         0.0813 
    118 H118       31.0678   31.6864   -0.6412 H         1 UNK         0.0813 
    119 H119       30.1781   30.6633    0.4789 H         1 UNK         0.0813 
    120 H120       30.2879   31.9060    3.3072 H         1 UNK         0.3038 
    121 H121       31.7586   31.5920    4.9158 H         1 UNK         0.0769 
    122 H122       33.4757   33.8488    3.7473 H         1 UNK         0.0811 
    123 H123       33.6029   33.1636    5.3587 H         1 UNK         0.0811 
    124 H124       32.1662   34.0681    4.9080 H         1 UNK         0.0811 
    125 H125       31.7111   29.8615    2.9003 H         1 UNK         0.3204 
    126 H126       34.3437   29.3286    1.7374 H         1 UNK         0.0748 
    127 H127       33.1868   27.3802    0.7210 H         1 UNK         0.0771 
    128 H128       31.7696   27.6585    1.7189 H         1 UNK         0.0771 
    129 H129       32.2259   28.8325    0.4831 H         1 UNK         0.0771 
    130 H130       35.8036   27.8698    2.4174 H         1 UNK         0.2980 
    131 H131       37.0288   26.6952    3.7791 H         1 UNK         0.0545 
    132 H132       35.5402   28.6483    5.4561 H         1 UNK         0.3459 
    133 H133       35.7239   27.9769    7.0585 H         1 UNK         0.3459 
    134 H134       36.2387   24.2857    4.1589 H         1 UNK         0.0616 
    135 H135       36.3187   24.8994    2.5476 H         1 UNK         0.0616 
    136 H136       33.7033   24.6847    5.5069 H         1 UNK         0.0634 
    137 H137       34.0884   23.0378    5.0492 H         1 UNK         0.0634 
@<TRIPOS>BOND
     1    1    2 1    
     2    1   72 1    
     3    1   73 1    
     4    1   74 1    
     5    2    3 2    
     6    2    4 am   BACKBONE|DICT|INTERRES
     7    4    5 1    
     8    4   75 1    
     9    5    6 1    
    10    5   35 1    
    11    5   76 1    
    12    6    7 1    
    13    6   77 1    
    14    6   78 1    
    15    7    8 1    
    16    8    9 1    
    17    8   79 1    
    18    8   80 1    
    19    9   10 ar   
    20    9   14 ar   
    21   10   11 ar   
    22   10   81 1    
    23   11   12 ar   
    24   11   71 1    
    25   12   13 ar   
    26   12   82 1    
    27   13   14 ar   
    28   13   15 1    
    29   14   83 1    
    30   15   16 1    
    31   15   84 1    
    32   15   85 1    
    33   16   17 1    
    34   17   18 1    
    35   17   86 1    
    36   17   87 1    
    37   18   19 1    
    38   18   37 1    
    39   18   88 1    
    40   19   20 am   BACKBONE|DICT|INTERRES
    41   19   89 1    
    42   20   21 2    
    43   20   22 1    
    44   22   23 1    
    45   22   24 1    
    46   22   90 1    
    47   23   91 1    
    48   23   92 1    
    49   23   93 1    
    50   24   25 am   BACKBONE|DICT|INTERRES
    51   24   94 1    
    52   25   26 2    
    53   25   27 1    
    54   27   28 1    
    55   27   29 1    
    56   27   95 1    
    57   28   96 1    
    58   28   97 1    
    59   28   98 1    
    60   29   30 am   BACKBONE|DICT|INTERRES
    61   29   99 1    
    62   30   31 2    
    63   30   32 1    
    64   32   33 1    
    65   32   34 1    
    66   32  100 1    
    67   33  101 1    
    68   33  102 1    
    69   33  103 1    
    70   34   35 am   BACKBONE|DICT|INTERRES
    71   34  104 1    
    72   35   36 2    
    73   37   38 2    
    74   37   39 am   BACKBONE|DICT|INTERRES
    75   39   40 1    
    76   39  105 1    
    77   40   41 1    
    78   40   42 1    
    79   40  106 1    
    80   41  107 1    
    81   41  108 1    
    82   41  109 1    
    83   42   43 2    
    84   42   44 am   BACKBONE|DICT|INTERRES
    85   44   45 1    
    86   44  110 1    
    87   45   46 1    
    88   45   47 1    
    89   45  111 1    
    90   46  112 1    
    91   46  113 1    
    92   46  114 1    
    93   47   48 2    
    94   47   49 am   BACKBONE|DICT|INTERRES
    95   49   50 1    
    96   49  115 1    
    97   50   51 1    
    98   50   52 1    
    99   50  116 1    
   100   51  117 1    
   101   51  118 1    
   102   51  119 1    
   103   52   53 2    
   104   52   54 am   BACKBONE|DICT|INTERRES
   105   54   55 1    
   106   54  120 1    
   107   55   56 1    
   108   55   57 1    
   109   55  121 1    
   110   56  122 1    
   111   56  123 1    
   112   56  124 1    
   113   57   58 2    
   114   57   59 am   BACKBONE|DICT|INTERRES
   115   59   60 1    
   116   59  125 1    
   117   60   61 1    
   118   60   62 1    
   119   60  126 1    
   120   61  127 1    
   121   61  128 1    
   122   61  129 1    
   123   62   63 2    
   124   62   64 am   BACKBONE|DICT|INTERRES
   125   64   65 1    
   126   64  130 1    
   127   65   66 1    
   128   65   69 1    
   129   65  131 1    
   130   66   67 am   BACKBONE|DICT|INTERRES
   131   66   68 2    
   132   67  132 1    
   133   67  133 1    
   134   69   70 1    
   135   69  134 1    
   136   69  135 1    
   137   70   71 1    
   138   71  136 1    
   139   71  137 1    
@<TRIPOS>SUBSTRUCTURE
     1 UNK         1 GROUP             0       ****    0 ROOT    
