@<TRIPOS>MOLECULE
3R136
137   139    1
SMALL
USER_CHARGES


@<TRIPOS>ATOM
      1 CA         32.5475   20.8324   -1.9730 C.3       0 UNK        -0.1979 
      2 C          31.3259   21.2884   -1.1910 C.2       0 UNK         0.4864 
      3 O          30.8255   22.3889   -1.4211 O.2       0 UNK        -0.5359 
      4 N          30.8183   20.4427   -0.2842 N.am      1 UNK        -0.4318 
      5 CA         29.7118   20.7415    0.6418 C.3       1 UNK         0.0824 
      6 C6         29.7047   19.7967    1.8738 C.3       12 UNK        -0.0944 
      7 S7         31.3316   19.7132    2.7073 S.3       12 UNK        -0.2672 
      8 C8         31.0754   20.7090    4.2197 C.3       12 UNK         0.0333 
      9 C9         30.6898   22.1675    3.9719 C.ar      12 UNK        -0.0807 
     10 C10        31.2240   22.8988    2.9035 C.ar      12 UNK        -0.0894 
     11 C11        30.8074   24.2098    2.6585 C.ar      12 UNK        -0.0804 
     12 C12        29.9025   24.8142    3.5312 C.ar      12 UNK        -0.0824 
     13 C13        29.4143   24.1267    4.6449 C.ar      12 UNK        -0.0762 
     14 C14        29.7974   22.7969    4.8474 C.ar      12 UNK        -0.0782 
     15 C15        28.5101   24.8312    5.6488 C.3       12 UNK         0.0230 
     16 S16        26.9604   25.4206    4.8941 S.3       12 UNK        -0.2608 
     17 C17        27.0643   27.2321    5.1392 C.3       12 UNK        -0.0989 
     18 CA         27.6001   28.0004    3.8997 C.3       5 UNK         0.0716 
     19 N          26.8688   27.6352    2.6811 N.am      5 UNK        -0.4135 
     20 C          27.3479   27.6819    1.4341 C.2       4 UNK         0.5031 
     21 O          28.4844   28.0687    1.1494 O.2       4 UNK        -0.5229 
     22 CA         26.3529   27.3220    0.3193 C.3       4 UNK         0.0329 
     23 CB         25.6576   28.5930   -0.1966 C.3       4 UNK        -0.2001 
     24 N          26.9918   26.6372   -0.8050 N.am      4 UNK        -0.4303 
     25 C          27.5117   25.4051   -0.7491 C.2       3 UNK         0.5044 
     26 O          27.5236   24.7077    0.2679 O.2       3 UNK        -0.5152 
     27 CA         28.1281   24.8766   -2.0562 C.3       3 UNK         0.0319 
     28 CB         29.5768   25.3683   -2.2070 C.3       3 UNK        -0.2001 
     29 N          28.1068   23.4130   -2.1077 N.am      3 UNK        -0.4354 
     30 C          27.0003   22.6753   -2.3018 C.2       2 UNK         0.4964 
     31 O          25.8998   23.1593   -2.5710 O.2       2 UNK        -0.5047 
     32 CA         27.1267   21.1420   -2.1850 C.3       2 UNK         0.0288 
     33 CB         27.2608   20.5033   -3.5773 C.3       2 UNK        -0.2113 
     34 N          28.2660   20.7376   -1.3619 N.am      2 UNK        -0.4145 
     35 C          28.3209   20.8478   -0.0269 C.2       1 UNK         0.5006 
     36 O          27.3285   21.0623    0.6711 O.2       1 UNK        -0.5103 
     37 C          27.5895   29.5339    4.1005 C.2       5 UNK         0.5055 
     38 O          27.1850   30.0180    5.1598 O.2       5 UNK        -0.5220 
     39 N          27.9812   30.2768    3.0569 N.am      6 UNK        -0.4450 
     40 CA         27.9747   31.7371    3.0146 C.3       6 UNK         0.0367 
     41 CB         28.0903   32.1992    1.5529 C.3       6 UNK        -0.1929 
     42 C          29.1184   32.3217    3.8520 C.2       6 UNK         0.5070 
     43 O          30.2633   31.8909    3.6985 O.2       6 UNK        -0.5237 
     44 N          28.8068   33.3324    4.6731 N.am      7 UNK        -0.4739 
     45 CA         29.7667   34.0354    5.5336 C.3       7 UNK         0.0276 
     46 CB         29.0051   34.9604    6.4962 C.3       7 UNK        -0.1927 
     47 C          30.8336   34.8275    4.7565 C.2       7 UNK         0.5013 
     48 O          31.9423   34.9970    5.2629 O.2       7 UNK        -0.5193 
     49 N          30.4910   35.2722    3.5382 N.am      8 UNK        -0.4253 
     50 CA         31.4075   35.9294    2.6025 C.3       8 UNK         0.0242 
     51 CB         30.6023   36.5652    1.4575 C.3       8 UNK        -0.2000 
     52 C          32.4761   34.9715    2.0462 C.2       8 UNK         0.4948 
     53 O          33.6149   35.3931    1.8410 O.2       8 UNK        -0.5275 
     54 N          32.0947   33.7052    1.8243 N.am      9 UNK        -0.4246 
     55 CA         33.0027   32.6266    1.4281 C.3       9 UNK         0.0261 
     56 CB         32.2087   31.5317    0.6947 C.3       9 UNK        -0.1959 
     57 C          33.7430   32.0315    2.6371 C.2       9 UNK         0.5033 
     58 O          34.8929   31.6156    2.4922 O.2       9 UNK        -0.5390 
     59 N          33.0580   31.9876    3.7909 N.am      10 UNK        -0.4215 
     60 CA         33.4685   31.3862    5.0647 C.3       10 UNK         0.0240 
     61 CB         34.7127   32.0902    5.6470 C.3       10 UNK        -0.1982 
     62 C          33.6170   29.8545    4.9748 C.2       10 UNK         0.4970 
     63 O          34.4291   29.2715    5.6955 O.2       10 UNK        -0.4916 
     64 N          32.8279   29.2334    4.0887 N.am      11 UNK        -0.4279 
     65 CA         32.7726   27.7838    3.8808 C.3       11 UNK         0.1003 
     66 C          32.0238   27.0803    5.0431 C.2       11 UNK         0.5709 
     67 N          32.5471   25.9705    5.5447 N.am      11 UNK        -0.7358 
     68 O          30.9596   27.5237    5.4713 O.2       11 UNK        -0.4999 
     69 C69        32.1567   27.4566    2.4936 C.3       12 UNK        -0.0954 
     70 S70        32.8192   25.9110    1.7845 S.3       12 UNK        -0.2268 
     71 C71        31.3087   24.9600    1.4347 C.3       12 UNK         0.0203 
     72 H72        32.8720   19.8348   -1.6773 H         1 UNK         0.0888 
     73 H73        32.3261   20.8164   -3.0398 H         1 UNK         0.0888 
     74 H74        33.3750   21.5216   -1.8068 H         1 UNK         0.0888 
     75 H75        31.2641   19.5472   -0.1409 H         1 UNK         0.3017 
     76 H76        29.8847   21.7514    1.0099 H         1 UNK         0.0873 
     77 H77        29.4279   18.7850    1.5721 H         1 UNK         0.0745 
     78 H78        28.9526   20.1137    2.5990 H         1 UNK         0.0745 
     79 H79        30.3152   20.2136    4.8259 H         1 UNK         0.0705 
     80 H80        31.9954   20.6914    4.8051 H         1 UNK         0.0705 
     81 H81        31.9337   22.4351    2.2323 H         1 UNK         0.1334 
     82 H82        29.5879   25.8286    3.3490 H         1 UNK         0.1417 
     83 H83        29.4087   22.2525    5.6974 H         1 UNK         0.1562 
     84 H84        29.0638   25.6579    6.0938 H         1 UNK         0.0748 
     85 H85        28.2550   24.1631    6.4726 H         1 UNK         0.0748 
     86 H86        26.0594   27.5780    5.3895 H         1 UNK         0.0940 
     87 H87        27.6754   27.4517    6.0167 H         1 UNK         0.0940 
     88 H88        28.6489   27.7317    3.7739 H         1 UNK         0.0703 
     89 H89        25.9159   27.3332    2.8227 H         1 UNK         0.3081 
     90 H90        25.5940   26.6516    0.7291 H         1 UNK         0.0719 
     91 H91        25.1439   29.1154    0.6118 H         1 UNK         0.0809 
     92 H92        26.3706   29.2937   -0.6337 H         1 UNK         0.0809 
     93 H93        24.9093   28.3581   -0.9539 H         1 UNK         0.0809 
     94 H94        27.0636   27.1572   -1.6673 H         1 UNK         0.2990 
     95 H95        27.5438   25.2571   -2.8969 H         1 UNK         0.0690 
     96 H96        30.0217   25.0142   -3.1371 H         1 UNK         0.0788 
     97 H97        30.2052   25.0240   -1.3856 H         1 UNK         0.0788 
     98 H98        29.6246   26.4580   -2.2174 H         1 UNK         0.0788 
     99 H99        28.9774   22.9504   -1.8623 H         1 UNK         0.2993 
    100 H100       26.2108   20.7696   -1.7206 H         1 UNK         0.0949 
    101 H101       27.2940   19.4154   -3.5133 H         1 UNK         0.0767 
    102 H102       26.4101   20.7638   -4.2087 H         1 UNK         0.0767 
    103 H103       28.1630   20.8385   -4.0908 H         1 UNK         0.0767 
    104 H104       29.1321   20.5544   -1.8473 H         1 UNK         0.3013 
    105 H105       28.3291   29.7892    2.2376 H         1 UNK         0.3121 
    106 H106       27.0205   32.0884    3.4136 H         1 UNK         0.0774 
    107 H107       29.0167   31.8562    1.0907 H         1 UNK         0.0815 
    108 H108       27.2607   31.8240    0.9532 H         1 UNK         0.0815 
    109 H109       28.0723   33.2875    1.4821 H         1 UNK         0.0815 
    110 H110       27.8425   33.6282    4.7369 H         1 UNK         0.2987 
    111 H111       30.2933   33.2839    6.1265 H         1 UNK         0.0949 
    112 H112       28.3101   34.3986    7.1207 H         1 UNK         0.0806 
    113 H113       29.6933   35.4775    7.1667 H         1 UNK         0.0806 
    114 H114       28.4372   35.7228    5.9615 H         1 UNK         0.0806 
    115 H115       29.5464   35.1091    3.2216 H         1 UNK         0.3010 
    116 H116       31.9258   36.7266    3.1403 H         1 UNK         0.0829 
    117 H117       30.0435   35.8198    0.8901 H         1 UNK         0.0813 
    118 H118       31.2619   37.0798    0.7572 H         1 UNK         0.0813 
    119 H119       29.8933   37.3034    1.8329 H         1 UNK         0.0813 
    120 H120       31.1436   33.4430    2.0385 H         1 UNK         0.3038 
    121 H121       33.7502   33.0243    0.7380 H         1 UNK         0.0769 
    122 H122       31.7123   31.9280   -0.1911 H         1 UNK         0.0811 
    123 H123       31.4473   31.0810    1.3323 H         1 UNK         0.0811 
    124 H124       32.8694   30.7295    0.3628 H         1 UNK         0.0811 
    125 H125       32.0782   32.2613    3.7560 H         1 UNK         0.3204 
    126 H126       32.6419   31.5638    5.7544 H         1 UNK         0.0748 
    127 H127       35.6058   31.8965    5.0524 H         1 UNK         0.0771 
    128 H128       34.5678   33.1698    5.6951 H         1 UNK         0.0771 
    129 H129       34.9177   31.7461    6.6614 H         1 UNK         0.0771 
    130 H130       32.1482   29.7837    3.5856 H         1 UNK         0.2980 
    131 H131       33.8077   27.4351    3.8819 H         1 UNK         0.0545 
    132 H132       33.4036   25.5881    5.1768 H         1 UNK         0.3459 
    133 H133       32.0627   25.4932    6.2870 H         1 UNK         0.3459 
    134 H134       32.4094   28.2404    1.7774 H         1 UNK         0.0616 
    135 H135       31.0663   27.4407    2.5287 H         1 UNK         0.0616 
    136 H136       30.5315   25.6209    1.0465 H         1 UNK         0.0634 
    137 H137       31.5250   24.2492    0.6356 H         1 UNK         0.0634 
@<TRIPOS>BOND
     1    1    2 1    
     2    1   72 1    
     3    1   73 1    
     4    1   74 1    
     5    2    3 2    
     6    2    4 am   BACKBONE|DICT|INTERRES
     7    4    5 1    
     8    4   75 1    
     9    5    6 1    
    10    5   35 1    
    11    5   76 1    
    12    6    7 1    
    13    6   77 1    
    14    6   78 1    
    15    7    8 1    
    16    8    9 1    
    17    8   79 1    
    18    8   80 1    
    19    9   10 ar   
    20    9   14 ar   
    21   10   11 ar   
    22   10   81 1    
    23   11   12 ar   
    24   11   71 1    
    25   12   13 ar   
    26   12   82 1    
    27   13   14 ar   
    28   13   15 1    
    29   14   83 1    
    30   15   16 1    
    31   15   84 1    
    32   15   85 1    
    33   16   17 1    
    34   17   18 1    
    35   17   86 1    
    36   17   87 1    
    37   18   19 1    
    38   18   37 1    
    39   18   88 1    
    40   19   20 am   BACKBONE|DICT|INTERRES
    41   19   89 1    
    42   20   21 2    
    43   20   22 1    
    44   22   23 1    
    45   22   24 1    
    46   22   90 1    
    47   23   91 1    
    48   23   92 1    
    49   23   93 1    
    50   24   25 am   BACKBONE|DICT|INTERRES
    51   24   94 1    
    52   25   26 2    
    53   25   27 1    
    54   27   28 1    
    55   27   29 1    
    56   27   95 1    
    57   28   96 1    
    58   28   97 1    
    59   28   98 1    
    60   29   30 am   BACKBONE|DICT|INTERRES
    61   29   99 1    
    62   30   31 2    
    63   30   32 1    
    64   32   33 1    
    65   32   34 1    
    66   32  100 1    
    67   33  101 1    
    68   33  102 1    
    69   33  103 1    
    70   34   35 am   BACKBONE|DICT|INTERRES
    71   34  104 1    
    72   35   36 2    
    73   37   38 2    
    74   37   39 am   BACKBONE|DICT|INTERRES
    75   39   40 1    
    76   39  105 1    
    77   40   41 1    
    78   40   42 1    
    79   40  106 1    
    80   41  107 1    
    81   41  108 1    
    82   41  109 1    
    83   42   43 2    
    84   42   44 am   BACKBONE|DICT|INTERRES
    85   44   45 1    
    86   44  110 1    
    87   45   46 1    
    88   45   47 1    
    89   45  111 1    
    90   46  112 1    
    91   46  113 1    
    92   46  114 1    
    93   47   48 2    
    94   47   49 am   BACKBONE|DICT|INTERRES
    95   49   50 1    
    96   49  115 1    
    97   50   51 1    
    98   50   52 1    
    99   50  116 1    
   100   51  117 1    
   101   51  118 1    
   102   51  119 1    
   103   52   53 2    
   104   52   54 am   BACKBONE|DICT|INTERRES
   105   54   55 1    
   106   54  120 1    
   107   55   56 1    
   108   55   57 1    
   109   55  121 1    
   110   56  122 1    
   111   56  123 1    
   112   56  124 1    
   113   57   58 2    
   114   57   59 am   BACKBONE|DICT|INTERRES
   115   59   60 1    
   116   59  125 1    
   117   60   61 1    
   118   60   62 1    
   119   60  126 1    
   120   61  127 1    
   121   61  128 1    
   122   61  129 1    
   123   62   63 2    
   124   62   64 am   BACKBONE|DICT|INTERRES
   125   64   65 1    
   126   64  130 1    
   127   65   66 1    
   128   65   69 1    
   129   65  131 1    
   130   66   67 am   BACKBONE|DICT|INTERRES
   131   66   68 2    
   132   67  132 1    
   133   67  133 1    
   134   69   70 1    
   135   69  134 1    
   136   69  135 1    
   137   70   71 1    
   138   71  136 1    
   139   71  137 1    
@<TRIPOS>SUBSTRUCTURE
     1 UNK         1 GROUP             0       ****    0 ROOT    
