@<TRIPOS>MOLECULE
3R136
137   139    1
SMALL
USER_CHARGES


@<TRIPOS>ATOM
      1 CA         28.1658   21.0226   -2.1361 C.3       0 UNK        -0.1979 
      2 C          28.2438   22.4842   -2.5521 C.2       0 UNK         0.4864 
      3 O          28.0824   22.7943   -3.7338 O.2       0 UNK        -0.5359 
      4 N          28.4959   23.3745   -1.5867 N.am      1 UNK        -0.4318 
      5 CA         28.5490   24.8289   -1.7557 C.3       1 UNK         0.0824 
      6 C6         29.6523   25.4461   -0.8550 C.3       12 UNK        -0.0944 
      7 S7         31.3255   25.0470   -1.4656 S.3       12 UNK        -0.2672 
      8 C8         31.7759   23.5504   -0.5185 C.3       12 UNK         0.0333 
      9 C9         32.0391   23.7734    0.9698 C.ar      12 UNK        -0.0807 
     10 C10        32.5855   24.9669    1.4566 C.ar      12 UNK        -0.0894 
     11 C11        32.8310   25.1344    2.8226 C.ar      12 UNK        -0.0804 
     12 C12        32.5330   24.0966    3.7101 C.ar      12 UNK        -0.0824 
     13 C13        31.9930   22.8958    3.2382 C.ar      12 UNK        -0.0762 
     14 C14        31.7600   22.7388    1.8684 C.ar      12 UNK        -0.0782 
     15 C15        31.6311   21.7773    4.2071 C.3       12 UNK         0.0230 
     16 S16        29.8282   21.5114    4.3063 S.3       12 UNK        -0.2608 
     17 C17        29.2483   23.1419    4.8840 C.3       12 UNK        -0.0989 
     18 CA         28.8069   24.0662    3.7166 C.3       5 UNK         0.0716 
     19 N          27.5889   23.6083    3.0535 N.am      5 UNK        -0.4135 
     20 C          27.5233   22.9968    1.8669 C.2       4 UNK         0.5031 
     21 O          28.4992   22.7183    1.1701 O.2       4 UNK        -0.5229 
     22 CA         26.1197   22.6846    1.3266 C.3       4 UNK         0.0329 
     23 CB         25.4007   21.6093    2.1657 C.3       4 UNK        -0.2001 
     24 N          25.3048   23.8909    1.1386 N.am      4 UNK        -0.4303 
     25 C          24.7962   24.7131    2.0688 C.2       3 UNK         0.5044 
     26 O          24.9163   24.5408    3.2832 O.2       3 UNK        -0.5152 
     27 CA         24.0984   25.9679    1.5302 C.3       3 UNK         0.0319 
     28 CB         23.5921   26.9175    2.6329 C.3       3 UNK        -0.2001 
     29 N          25.0243   26.6599    0.6324 N.am      3 UNK        -0.4354 
     30 C          24.6866   27.1746   -0.5547 C.2       2 UNK         0.4964 
     31 O          23.5249   27.2902   -0.9476 O.2       2 UNK        -0.5047 
     32 CA         25.8362   27.5963   -1.4885 C.3       2 UNK         0.0288 
     33 CB         26.1963   29.0743   -1.2615 C.3       2 UNK        -0.2113 
     34 N          27.0581   26.7768   -1.4196 N.am      2 UNK        -0.4145 
     35 C          27.1375   25.4436   -1.5678 C.2       1 UNK         0.5006 
     36 O          26.1415   24.7135   -1.5987 O.2       1 UNK        -0.5103 
     37 C          28.5921   25.5216    4.1578 C.2       5 UNK         0.5055 
     38 O          28.5530   25.8121    5.3550 O.2       5 UNK        -0.5220 
     39 N          28.4458   26.4097    3.1711 N.am      6 UNK        -0.4450 
     40 CA         28.4309   27.8582    3.3280 C.3       6 UNK         0.0367 
     41 CB         27.0233   28.3580    3.6894 C.3       6 UNK        -0.1929 
     42 C          28.8847   28.4458    1.9922 C.2       6 UNK         0.5070 
     43 O          28.5218   27.8950    0.9508 O.2       6 UNK        -0.5237 
     44 N          29.6425   29.5421    2.0374 N.am      7 UNK        -0.4739 
     45 CA         30.1432   30.2578    0.8678 C.3       7 UNK         0.0276 
     46 CB         31.3247   29.5030    0.2162 C.3       7 UNK        -0.1927 
     47 C          30.4449   31.7082    1.2687 C.2       7 UNK         0.5013 
     48 O          29.5020   32.4857    1.4245 O.2       7 UNK        -0.5193 
     49 N          31.7276   32.0578    1.4229 N.am      8 UNK        -0.4253 
     50 CA         32.2004   33.4011    1.7562 C.3       8 UNK         0.0242 
     51 CB         32.5068   34.1651    0.4541 C.3       8 UNK        -0.2000 
     52 C          33.4392   33.3175    2.6578 C.2       8 UNK         0.4948 
     53 O          33.9990   32.2314    2.8369 O.2       8 UNK        -0.5275 
     54 N          33.8429   34.4743    3.2049 N.am      9 UNK        -0.4246 
     55 CA         34.9563   34.6672    4.1429 C.3       9 UNK         0.0261 
     56 CB         36.3133   34.4062    3.4476 C.3       9 UNK        -0.1959 
     57 C          34.7280   33.8551    5.4316 C.2       9 UNK         0.5033 
     58 O          33.6820   34.0243    6.0619 O.2       9 UNK        -0.5390 
     59 N          35.6630   32.9612    5.7825 N.am      10 UNK        -0.4215 
     60 CA         35.5474   32.0234    6.9066 C.3       10 UNK         0.0240 
     61 CB         36.8809   31.2786    7.0825 C.3       10 UNK        -0.1982 
     62 C          34.3839   31.0205    6.7650 C.2       10 UNK         0.4970 
     63 O          33.9075   30.5092    7.7788 O.2       10 UNK        -0.4916 
     64 N          33.9431   30.7761    5.5250 N.am      11 UNK        -0.4279 
     65 CA         32.7565   29.9871    5.1766 C.3       11 UNK         0.1003 
     66 C          31.4557   30.8470    5.0908 C.2       11 UNK         0.5709 
     67 N          31.4640   32.1298    5.4369 N.am      11 UNK        -0.7358 
     68 O          30.4058   30.3473    4.6976 O.2       11 UNK        -0.4999 
     69 C69        33.0293   29.1760    3.8812 C.3       12 UNK        -0.0954 
     70 S70        32.1035   27.6079    3.7861 S.3       12 UNK        -0.2268 
     71 C71        33.4187   26.4403    3.3317 C.3       12 UNK         0.0203 
     72 H72        28.8908   20.4330   -2.6966 H         1 UNK         0.0888 
     73 H73        28.3716   20.8909   -1.0736 H         1 UNK         0.0888 
     74 H74        27.1713   20.6272   -2.3406 H         1 UNK         0.0888 
     75 H75        28.5858   23.0544   -0.6240 H         1 UNK         0.3017 
     76 H76        28.8140   25.0511   -2.7917 H         1 UNK         0.0873 
     77 H77        29.6065   26.5336   -0.8664 H         1 UNK         0.0745 
     78 H78        29.5428   25.1409    0.1870 H         1 UNK         0.0745 
     79 H79        30.9960   22.8008   -0.6551 H         1 UNK         0.0705 
     80 H80        32.6803   23.1306   -0.9600 H         1 UNK         0.0705 
     81 H81        32.8207   25.7727    0.7753 H         1 UNK         0.1334 
     82 H82        32.7119   24.2307    4.7683 H         1 UNK         0.1417 
     83 H83        31.3313   21.8133    1.5074 H         1 UNK         0.1562 
     84 H84        32.0183   21.9848    5.2059 H         1 UNK         0.0748 
     85 H85        32.1075   20.8519    3.8806 H         1 UNK         0.0748 
     86 H86        30.0487   23.6047    5.4647 H         1 UNK         0.0940 
     87 H87        28.4229   22.9896    5.5816 H         1 UNK         0.0940 
     88 H88        29.6147   24.1110    2.9865 H         1 UNK         0.0703 
     89 H89        26.7100   23.8705    3.4935 H         1 UNK         0.3081 
     90 H90        26.2546   22.2698    0.3262 H         1 UNK         0.0719 
     91 H91        25.2274   21.9281    3.1936 H         1 UNK         0.0809 
     92 H92        24.4361   21.3491    1.7300 H         1 UNK         0.0809 
     93 H93        25.9936   20.6948    2.2095 H         1 UNK         0.0809 
     94 H94        25.2122   24.1777    0.1681 H         1 UNK         0.2990 
     95 H95        23.2315   25.6152    0.9670 H         1 UNK         0.0690 
     96 H96        23.1677   27.8284    2.2107 H         1 UNK         0.0788 
     97 H97        24.3819   27.2017    3.3260 H         1 UNK         0.0788 
     98 H98        22.8096   26.4378    3.2219 H         1 UNK         0.0788 
     99 H99        26.0062   26.6154    0.8694 H         1 UNK         0.2993 
    100 H100       25.4588   27.4976   -2.5084 H         1 UNK         0.0949 
    101 H101       25.3195   29.7120   -1.3830 H         1 UNK         0.0767 
    102 H102       26.5846   29.2466   -0.2573 H         1 UNK         0.0767 
    103 H103       26.9455   29.4173   -1.9751 H         1 UNK         0.0767 
    104 H104       27.9171   27.2944   -1.2906 H         1 UNK         0.3013 
    105 H105       28.5127   26.1103    2.2067 H         1 UNK         0.3121 
    106 H106       29.1351   28.1380    4.1133 H         1 UNK         0.0774 
    107 H107       26.3331   28.2330    2.8556 H         1 UNK         0.0815 
    108 H108       27.0453   29.4207    3.9332 H         1 UNK         0.0815 
    109 H109       26.6165   27.8334    4.5538 H         1 UNK         0.0815 
    110 H110       29.8791   29.9376    2.9464 H         1 UNK         0.2987 
    111 H111       29.3395   30.3127    0.1297 H         1 UNK         0.0949 
    112 H112       32.1242   29.2862    0.9219 H         1 UNK         0.0806 
    113 H113       30.9973   28.5496   -0.1986 H         1 UNK         0.0806 
    114 H114       31.7513   30.0751   -0.6087 H         1 UNK         0.0806 
    115 H115       32.4535   31.3563    1.3616 H         1 UNK         0.3010 
    116 H116       31.4280   33.9327    2.3166 H         1 UNK         0.0829 
    117 H117       32.8381   35.1842    0.6565 H         1 UNK         0.0813 
    118 H118       33.2918   33.6748   -0.1232 H         1 UNK         0.0813 
    119 H119       31.6226   34.2369   -0.1795 H         1 UNK         0.0813 
    120 H120       33.2935   35.3018    3.0183 H         1 UNK         0.3038 
    121 H121       34.9349   35.7168    4.4401 H         1 UNK         0.0769 
    122 H122       36.4227   33.3722    3.1185 H         1 UNK         0.0811 
    123 H123       37.1491   34.6389    4.1089 H         1 UNK         0.0811 
    124 H124       36.4245   35.0394    2.5671 H         1 UNK         0.0811 
    125 H125       36.4848   32.8770    5.2013 H         1 UNK         0.3204 
    126 H126       35.3603   32.6097    7.8086 H         1 UNK         0.0748 
    127 H127       36.8369   30.5943    7.9312 H         1 UNK         0.0771 
    128 H128       37.1334   30.6879    6.2009 H         1 UNK         0.0771 
    129 H129       37.7016   31.9712    7.2709 H         1 UNK         0.0771 
    130 H130       34.3574   31.2790    4.7490 H         1 UNK         0.2980 
    131 H131       32.5831   29.2732    5.9835 H         1 UNK         0.0545 
    132 H132       30.6040   32.6501    5.3781 H         1 UNK         0.3459 
    133 H133       32.3089   32.5943    5.7498 H         1 UNK         0.3459 
    134 H134       32.8140   29.7749    2.9979 H         1 UNK         0.0616 
    135 H135       34.0916   28.9355    3.8144 H         1 UNK         0.0616 
    136 H136       34.0598   26.2613    4.1962 H         1 UNK         0.0634 
    137 H137       34.0506   26.8840    2.5606 H         1 UNK         0.0634 
@<TRIPOS>BOND
     1    1    2 1    
     2    1   72 1    
     3    1   73 1    
     4    1   74 1    
     5    2    3 2    
     6    2    4 am   BACKBONE|DICT|INTERRES
     7    4    5 1    
     8    4   75 1    
     9    5    6 1    
    10    5   35 1    
    11    5   76 1    
    12    6    7 1    
    13    6   77 1    
    14    6   78 1    
    15    7    8 1    
    16    8    9 1    
    17    8   79 1    
    18    8   80 1    
    19    9   10 ar   
    20    9   14 ar   
    21   10   11 ar   
    22   10   81 1    
    23   11   12 ar   
    24   11   71 1    
    25   12   13 ar   
    26   12   82 1    
    27   13   14 ar   
    28   13   15 1    
    29   14   83 1    
    30   15   16 1    
    31   15   84 1    
    32   15   85 1    
    33   16   17 1    
    34   17   18 1    
    35   17   86 1    
    36   17   87 1    
    37   18   19 1    
    38   18   37 1    
    39   18   88 1    
    40   19   20 am   BACKBONE|DICT|INTERRES
    41   19   89 1    
    42   20   21 2    
    43   20   22 1    
    44   22   23 1    
    45   22   24 1    
    46   22   90 1    
    47   23   91 1    
    48   23   92 1    
    49   23   93 1    
    50   24   25 am   BACKBONE|DICT|INTERRES
    51   24   94 1    
    52   25   26 2    
    53   25   27 1    
    54   27   28 1    
    55   27   29 1    
    56   27   95 1    
    57   28   96 1    
    58   28   97 1    
    59   28   98 1    
    60   29   30 am   BACKBONE|DICT|INTERRES
    61   29   99 1    
    62   30   31 2    
    63   30   32 1    
    64   32   33 1    
    65   32   34 1    
    66   32  100 1    
    67   33  101 1    
    68   33  102 1    
    69   33  103 1    
    70   34   35 am   BACKBONE|DICT|INTERRES
    71   34  104 1    
    72   35   36 2    
    73   37   38 2    
    74   37   39 am   BACKBONE|DICT|INTERRES
    75   39   40 1    
    76   39  105 1    
    77   40   41 1    
    78   40   42 1    
    79   40  106 1    
    80   41  107 1    
    81   41  108 1    
    82   41  109 1    
    83   42   43 2    
    84   42   44 am   BACKBONE|DICT|INTERRES
    85   44   45 1    
    86   44  110 1    
    87   45   46 1    
    88   45   47 1    
    89   45  111 1    
    90   46  112 1    
    91   46  113 1    
    92   46  114 1    
    93   47   48 2    
    94   47   49 am   BACKBONE|DICT|INTERRES
    95   49   50 1    
    96   49  115 1    
    97   50   51 1    
    98   50   52 1    
    99   50  116 1    
   100   51  117 1    
   101   51  118 1    
   102   51  119 1    
   103   52   53 2    
   104   52   54 am   BACKBONE|DICT|INTERRES
   105   54   55 1    
   106   54  120 1    
   107   55   56 1    
   108   55   57 1    
   109   55  121 1    
   110   56  122 1    
   111   56  123 1    
   112   56  124 1    
   113   57   58 2    
   114   57   59 am   BACKBONE|DICT|INTERRES
   115   59   60 1    
   116   59  125 1    
   117   60   61 1    
   118   60   62 1    
   119   60  126 1    
   120   61  127 1    
   121   61  128 1    
   122   61  129 1    
   123   62   63 2    
   124   62   64 am   BACKBONE|DICT|INTERRES
   125   64   65 1    
   126   64  130 1    
   127   65   66 1    
   128   65   69 1    
   129   65  131 1    
   130   66   67 am   BACKBONE|DICT|INTERRES
   131   66   68 2    
   132   67  132 1    
   133   67  133 1    
   134   69   70 1    
   135   69  134 1    
   136   69  135 1    
   137   70   71 1    
   138   71  136 1    
   139   71  137 1    
@<TRIPOS>SUBSTRUCTURE
     1 UNK         1 GROUP             0       ****    0 ROOT    
