@<TRIPOS>MOLECULE
3R136
137   139    1
SMALL
USER_CHARGES


@<TRIPOS>ATOM
      1 CA         28.5760   24.3911    3.6278 C.3       0 UNK        -0.1979 
      2 C          29.1831   23.6863    2.4251 C.2       0 UNK         0.4864 
      3 O          28.7835   22.5670    2.1027 O.2       0 UNK        -0.5359 
      4 N          30.1468   24.3353    1.7579 N.am      1 UNK        -0.4318 
      5 CA         30.8106   23.8460    0.5426 C.3       1 UNK         0.0824 
      6 C6         32.1192   24.6193    0.2371 C.3       12 UNK        -0.0944 
      7 S7         31.9163   26.4359    0.1761 S.3       12 UNK        -0.2672 
      8 C8         32.9134   26.9953    1.5910 C.3       12 UNK         0.0333 
      9 C9         32.2269   26.7229    2.9219 C.ar      12 UNK        -0.0807 
     10 C10        32.5042   25.5489    3.6308 C.ar      12 UNK        -0.0894 
     11 C11        31.8896   25.2968    4.8596 C.ar      12 UNK        -0.0804 
     12 C12        31.0112   26.2436    5.3920 C.ar      12 UNK        -0.0824 
     13 C13        30.7321   27.4255    4.6995 C.ar      12 UNK        -0.0762 
     14 C14        31.3296   27.6545    3.4560 C.ar      12 UNK        -0.0782 
     15 C15        29.8033   28.4557    5.3216 C.3       12 UNK         0.0230 
     16 S16        28.0533   28.0691    4.9965 S.3       12 UNK        -0.2608 
     17 C17        27.6172   29.2515    3.6746 C.3       12 UNK        -0.0989 
     18 CA         27.1133   28.5719    2.3709 C.3       5 UNK         0.0716 
     19 N          25.9966   27.6398    2.5801 N.am      5 UNK        -0.4135 
     20 C          24.7609   27.9413    3.0043 C.2       4 UNK         0.5031 
     21 O          24.3909   29.0794    3.2992 O.2       4 UNK        -0.5229 
     22 CA         23.7632   26.7672    3.0815 C.3       4 UNK         0.0329 
     23 CB         22.3632   27.2031    3.5547 C.3       4 UNK        -0.2001 
     24 N          23.6377   26.1033    1.7819 N.am      4 UNK        -0.4303 
     25 C          24.4691   25.1636    1.3151 C.2       3 UNK         0.5044 
     26 O          25.3887   24.6901    1.9857 O.2       3 UNK        -0.5152 
     27 CA         24.2746   24.7022   -0.1473 C.3       3 UNK         0.0319 
     28 CB         23.4052   25.6612   -0.9914 C.3       3 UNK        -0.2001 
     29 N          25.5486   24.4519   -0.8373 N.am      3 UNK        -0.4354 
     30 C          26.5883   25.2935   -0.9341 C.2       2 UNK         0.4964 
     31 O          26.6254   26.4204   -0.4342 O.2       2 UNK        -0.5047 
     32 CA         27.8170   24.7900   -1.6900 C.3       2 UNK         0.0288 
     33 CB         28.1922   25.7310   -2.8492 C.3       2 UNK        -0.2113 
     34 N          28.9006   24.7346   -0.7201 N.am      2 UNK        -0.4145 
     35 C          29.8679   23.8116   -0.6803 C.2       1 UNK         0.5006 
     36 O          30.0225   22.9428   -1.5411 O.2       1 UNK        -0.5103 
     37 C          26.7818   29.6037    1.2674 C.2       5 UNK         0.5055 
     38 O          26.9128   30.8110    1.4838 O.2       5 UNK        -0.5220 
     39 N          26.3448   29.1109    0.0990 N.am      6 UNK        -0.4450 
     40 CA         26.1106   29.9196   -1.1020 C.3       6 UNK         0.0367 
     41 CB         25.2856   29.1156   -2.1190 C.3       6 UNK        -0.1929 
     42 C          27.4257   30.4087   -1.7324 C.2       6 UNK         0.5070 
     43 O          27.4525   31.4924   -2.3166 O.2       6 UNK        -0.5237 
     44 N          28.4919   29.6165   -1.5712 N.am      7 UNK        -0.4739 
     45 CA         29.8733   30.0153   -1.8167 C.3       7 UNK         0.0276 
     46 CB         30.6212   28.8554   -2.4918 C.3       7 UNK        -0.1927 
     47 C          30.5139   30.3765   -0.4685 C.2       7 UNK         0.5013 
     48 O          30.2350   29.7161    0.5364 O.2       7 UNK        -0.5193 
     49 N          31.3570   31.4128   -0.4756 N.am      8 UNK        -0.4253 
     50 CA         32.0749   31.9188    0.6922 C.3       8 UNK         0.0242 
     51 CB         31.8250   33.4343    0.7983 C.3       8 UNK        -0.2000 
     52 C          33.5767   31.6395    0.5072 C.2       8 UNK         0.4948 
     53 O          34.0801   31.8665   -0.5943 O.2       8 UNK        -0.5275 
     54 N          34.3154   31.1937    1.5302 N.am      9 UNK        -0.4246 
     55 CA         33.8997   30.7567    2.8612 C.3       9 UNK         0.0261 
     56 CB         33.6366   31.9619    3.7846 C.3       9 UNK        -0.1959 
     57 C          35.0191   29.8744    3.4251 C.2       9 UNK         0.5033 
     58 O          36.1726   30.0132    3.0071 O.2       9 UNK        -0.5390 
     59 N          34.6607   28.9989    4.3658 N.am      10 UNK        -0.4215 
     60 CA         35.5428   28.0817    5.0799 C.3       10 UNK         0.0240 
     61 CB         36.0051   26.9350    4.1524 C.3       10 UNK        -0.1982 
     62 C          34.7823   27.5666    6.3118 C.2       10 UNK         0.4970 
     63 O          33.6851   28.0556    6.5978 O.2       10 UNK        -0.4916 
     64 N          35.3753   26.5869    7.0038 N.am      11 UNK        -0.4279 
     65 CA         34.8101   25.8869    8.1694 C.3       11 UNK         0.1003 
     66 C          34.6507   26.8062    9.4203 C.2       11 UNK         0.5709 
     67 N          33.8355   26.4285   10.3969 N.am      11 UNK        -0.7358 
     68 O          35.3073   27.8392    9.5458 O.2       11 UNK        -0.4999 
     69 C69        33.5313   25.0639    7.8192 C.3       12 UNK        -0.0954 
     70 S70        33.7752   23.9361    6.4027 S.3       12 UNK        -0.2268 
     71 C71        32.1460   23.9862    5.5917 C.3       12 UNK         0.0203 
     72 H72        28.7693   25.4627    3.6023 H         1 UNK         0.0888 
     73 H73        27.4962   24.2473    3.6472 H         1 UNK         0.0888 
     74 H74        28.9910   23.9878    4.5508 H         1 UNK         0.0888 
     75 H75        30.4677   25.2366    2.0877 H         1 UNK         0.3017 
     76 H76        31.0912   22.8075    0.7323 H         1 UNK         0.0873 
     77 H77        32.8724   24.3639    0.9818 H         1 UNK         0.0745 
     78 H78        32.5448   24.2917   -0.7135 H         1 UNK         0.0745 
     79 H79        33.8973   26.5246    1.5598 H         1 UNK         0.0705 
     80 H80        33.0897   28.0657    1.4807 H         1 UNK         0.0705 
     81 H81        33.1956   24.8224    3.2275 H         1 UNK         0.1334 
     82 H82        30.5381   26.0608    6.3470 H         1 UNK         0.1417 
     83 H83        31.1030   28.5594    2.9074 H         1 UNK         0.1562 
     84 H84        30.0572   29.4601    4.9809 H         1 UNK         0.0748 
     85 H85        29.9561   28.4685    6.4019 H         1 UNK         0.0748 
     86 H86        28.4801   29.8796    3.4471 H         1 UNK         0.0940 
     87 H87        26.8571   29.9267    4.0719 H         1 UNK         0.0940 
     88 H88        27.9370   27.9722    1.9794 H         1 UNK         0.0703 
     89 H89        26.1752   26.6731    2.3341 H         1 UNK         0.3081 
     90 H90        24.1537   26.0590    3.8158 H         1 UNK         0.0719 
     91 H91        21.9105   27.9234    2.8721 H         1 UNK         0.0809 
     92 H92        21.6895   26.3501    3.6380 H         1 UNK         0.0809 
     93 H93        22.4121   27.6717    4.5386 H         1 UNK         0.0809 
     94 H94        22.9303   26.4662    1.1592 H         1 UNK         0.2990 
     95 H95        23.7596   23.7419   -0.0951 H         1 UNK         0.0690 
     96 H96        23.3296   25.3164   -2.0229 H         1 UNK         0.0788 
     97 H97        23.8202   26.6686   -1.0125 H         1 UNK         0.0788 
     98 H98        22.3864   25.7242   -0.6075 H         1 UNK         0.0788 
     99 H99        25.6445   23.5298   -1.2391 H         1 UNK         0.2993 
    100 H100       27.6162   23.7926   -2.0876 H         1 UNK         0.0949 
    101 H101       27.3848   25.7892   -3.5801 H         1 UNK         0.0767 
    102 H102       28.3905   26.7449   -2.5007 H         1 UNK         0.0767 
    103 H103       29.0815   25.3790   -3.3722 H         1 UNK         0.0767 
    104 H104       28.8342   25.4000    0.0377 H         1 UNK         0.3013 
    105 H105       26.3052   28.0978   -0.0203 H         1 UNK         0.3121 
    106 H106       25.5330   30.8014   -0.8161 H         1 UNK         0.0774 
    107 H107       25.1239   29.6912   -3.0314 H         1 UNK         0.0815 
    108 H108       25.7828   28.1874   -2.4032 H         1 UNK         0.0815 
    109 H109       24.3033   28.8672   -1.7191 H         1 UNK         0.0815 
    110 H110       28.3734   28.7800   -1.0175 H         1 UNK         0.2987 
    111 H111       29.9090   30.8849   -2.4769 H         1 UNK         0.0949 
    112 H112       31.6760   29.0953   -2.6321 H         1 UNK         0.0806 
    113 H113       30.5688   27.9428   -1.8990 H         1 UNK         0.0806 
    114 H114       30.2033   28.6361   -3.4743 H         1 UNK         0.0806 
    115 H115       31.5970   31.8486   -1.3553 H         1 UNK         0.3010 
    116 H116       31.6942   31.4478    1.5975 H         1 UNK         0.0829 
    117 H117       30.7688   33.6487    0.9621 H         1 UNK         0.0813 
    118 H118       32.3779   33.8727    1.6291 H         1 UNK         0.0813 
    119 H119       32.1357   33.9600   -0.1057 H         1 UNK         0.0813 
    120 H120       35.3034   31.0281    1.3755 H         1 UNK         0.3038 
    121 H121       33.0036   30.1400    2.7848 H         1 UNK         0.0769 
    122 H122       34.4856   32.6464    3.8017 H         1 UNK         0.0811 
    123 H123       33.4607   31.6389    4.8117 H         1 UNK         0.0811 
    124 H124       32.7565   32.5259    3.4823 H         1 UNK         0.0811 
    125 H125       33.7089   28.9778    4.7157 H         1 UNK         0.3204 
    126 H126       36.4126   28.6393    5.4330 H         1 UNK         0.0748 
    127 H127       36.4706   27.3126    3.2423 H         1 UNK         0.0771 
    128 H128       36.7449   26.3002    4.6404 H         1 UNK         0.0771 
    129 H129       35.1732   26.2968    3.8585 H         1 UNK         0.0771 
    130 H130       36.2884   26.2723    6.7127 H         1 UNK         0.2980 
    131 H131       35.5790   25.1708    8.4606 H         1 UNK         0.0545 
    132 H132       33.7498   27.0120   11.2144 H         1 UNK         0.3459 
    133 H133       33.3035   25.5753   10.3320 H         1 UNK         0.3459 
    134 H134       33.2263   24.4461    8.6646 H         1 UNK         0.0616 
    135 H135       32.6970   25.7354    7.6162 H         1 UNK         0.0616 
    136 H136       31.3689   23.7970    6.3339 H         1 UNK         0.0634 
    137 H137       32.0880   23.1639    4.8771 H         1 UNK         0.0634 
@<TRIPOS>BOND
     1    1    2 1    
     2    1   72 1    
     3    1   73 1    
     4    1   74 1    
     5    2    3 2    
     6    2    4 am   BACKBONE|DICT|INTERRES
     7    4    5 1    
     8    4   75 1    
     9    5    6 1    
    10    5   35 1    
    11    5   76 1    
    12    6    7 1    
    13    6   77 1    
    14    6   78 1    
    15    7    8 1    
    16    8    9 1    
    17    8   79 1    
    18    8   80 1    
    19    9   10 ar   
    20    9   14 ar   
    21   10   11 ar   
    22   10   81 1    
    23   11   12 ar   
    24   11   71 1    
    25   12   13 ar   
    26   12   82 1    
    27   13   14 ar   
    28   13   15 1    
    29   14   83 1    
    30   15   16 1    
    31   15   84 1    
    32   15   85 1    
    33   16   17 1    
    34   17   18 1    
    35   17   86 1    
    36   17   87 1    
    37   18   19 1    
    38   18   37 1    
    39   18   88 1    
    40   19   20 am   BACKBONE|DICT|INTERRES
    41   19   89 1    
    42   20   21 2    
    43   20   22 1    
    44   22   23 1    
    45   22   24 1    
    46   22   90 1    
    47   23   91 1    
    48   23   92 1    
    49   23   93 1    
    50   24   25 am   BACKBONE|DICT|INTERRES
    51   24   94 1    
    52   25   26 2    
    53   25   27 1    
    54   27   28 1    
    55   27   29 1    
    56   27   95 1    
    57   28   96 1    
    58   28   97 1    
    59   28   98 1    
    60   29   30 am   BACKBONE|DICT|INTERRES
    61   29   99 1    
    62   30   31 2    
    63   30   32 1    
    64   32   33 1    
    65   32   34 1    
    66   32  100 1    
    67   33  101 1    
    68   33  102 1    
    69   33  103 1    
    70   34   35 am   BACKBONE|DICT|INTERRES
    71   34  104 1    
    72   35   36 2    
    73   37   38 2    
    74   37   39 am   BACKBONE|DICT|INTERRES
    75   39   40 1    
    76   39  105 1    
    77   40   41 1    
    78   40   42 1    
    79   40  106 1    
    80   41  107 1    
    81   41  108 1    
    82   41  109 1    
    83   42   43 2    
    84   42   44 am   BACKBONE|DICT|INTERRES
    85   44   45 1    
    86   44  110 1    
    87   45   46 1    
    88   45   47 1    
    89   45  111 1    
    90   46  112 1    
    91   46  113 1    
    92   46  114 1    
    93   47   48 2    
    94   47   49 am   BACKBONE|DICT|INTERRES
    95   49   50 1    
    96   49  115 1    
    97   50   51 1    
    98   50   52 1    
    99   50  116 1    
   100   51  117 1    
   101   51  118 1    
   102   51  119 1    
   103   52   53 2    
   104   52   54 am   BACKBONE|DICT|INTERRES
   105   54   55 1    
   106   54  120 1    
   107   55   56 1    
   108   55   57 1    
   109   55  121 1    
   110   56  122 1    
   111   56  123 1    
   112   56  124 1    
   113   57   58 2    
   114   57   59 am   BACKBONE|DICT|INTERRES
   115   59   60 1    
   116   59  125 1    
   117   60   61 1    
   118   60   62 1    
   119   60  126 1    
   120   61  127 1    
   121   61  128 1    
   122   61  129 1    
   123   62   63 2    
   124   62   64 am   BACKBONE|DICT|INTERRES
   125   64   65 1    
   126   64  130 1    
   127   65   66 1    
   128   65   69 1    
   129   65  131 1    
   130   66   67 am   BACKBONE|DICT|INTERRES
   131   66   68 2    
   132   67  132 1    
   133   67  133 1    
   134   69   70 1    
   135   69  134 1    
   136   69  135 1    
   137   70   71 1    
   138   71  136 1    
   139   71  137 1    
@<TRIPOS>SUBSTRUCTURE
     1 UNK         1 GROUP             0       ****    0 ROOT    
