@<TRIPOS>MOLECULE
3R136
137   139    1
SMALL
USER_CHARGES


@<TRIPOS>ATOM
      1 CA         28.8572   17.6116   -0.7205 C.3       0 UNK        -0.1979 
      2 C          28.7461   19.1285   -0.7503 C.2       0 UNK         0.4864 
      3 O          29.0374   19.7454   -1.7770 O.2       0 UNK        -0.5359 
      4 N          28.3152   19.7402    0.3614 N.am      1 UNK        -0.4318 
      5 CA         28.1394   21.1883    0.5272 C.3       1 UNK         0.0824 
      6 C6         28.2391   21.5902    2.0233 C.3       12 UNK        -0.0944 
      7 S7         28.7161   23.3367    2.2555 S.3       12 UNK        -0.2672 
      8 C8         29.7835   23.1986    3.7215 C.3       12 UNK         0.0333 
      9 C9         30.1458   24.5708    4.2648 C.ar      12 UNK        -0.0807 
     10 C10        31.3697   25.1635    3.9414 C.ar      12 UNK        -0.0894 
     11 C11        31.6993   26.4253    4.4459 C.ar      12 UNK        -0.0804 
     12 C12        30.7955   27.0956    5.2759 C.ar      12 UNK        -0.0824 
     13 C13        29.5592   26.5215    5.5878 C.ar      12 UNK        -0.0762 
     14 C14        29.2491   25.2506    5.0931 C.ar      12 UNK        -0.0782 
     15 C15        28.5458   27.2786    6.4356 C.3       12 UNK         0.0230 
     16 S16        26.9783   27.5464    5.5408 S.3       12 UNK        -0.2608 
     17 C17        27.4264   28.8353    4.3254 C.3       12 UNK        -0.0989 
     18 CA         28.1252   28.3024    3.0397 C.3       5 UNK         0.0716 
     19 N          27.4314   27.1727    2.4123 N.am      5 UNK        -0.4135 
     20 C          26.2177   27.1823    1.8475 C.2       4 UNK         0.5031 
     21 O          25.5000   28.1792    1.7425 O.2       4 UNK        -0.5229 
     22 CA         25.7443   25.8351    1.2764 C.3       4 UNK         0.0329 
     23 CB         24.2845   25.5437    1.6635 C.3       4 UNK        -0.2001 
     24 N          25.8812   25.7339   -0.1788 N.am      4 UNK        -0.4303 
     25 C          26.9762   25.9783   -0.9131 C.2       3 UNK         0.5044 
     26 O          28.0311   26.4297   -0.4617 O.2       3 UNK        -0.5152 
     27 CA         26.8789   25.5798   -2.3982 C.3       3 UNK         0.0319 
     28 CB         28.1124   25.9968   -3.2202 C.3       3 UNK        -0.2001 
     29 N          26.7231   24.1290   -2.4984 N.am      3 UNK        -0.4354 
     30 C          25.5610   23.4669   -2.4205 C.2       2 UNK         0.4964 
     31 O          24.4614   24.0181   -2.3588 O.2       2 UNK        -0.5047 
     32 CA         25.6535   21.9349   -2.3348 C.3       2 UNK         0.0288 
     33 CB         25.7943   21.3144   -3.7341 C.3       2 UNK        -0.2113 
     34 N          26.7661   21.4947   -1.4873 N.am      2 UNK        -0.4145 
     35 C          26.8402   21.6743   -0.1603 C.2       1 UNK         0.5006 
     36 O          25.9288   22.1715    0.5044 O.2       1 UNK        -0.5103 
     37 C          28.4813   29.4400    2.0545 C.2       5 UNK         0.5055 
     38 O          28.7031   30.5688    2.4988 O.2       5 UNK        -0.5220 
     39 N          28.5635   29.1385    0.7469 N.am      6 UNK        -0.4450 
     40 CA         28.7960   30.1172   -0.3239 C.3       6 UNK         0.0367 
     41 CB         28.6568   29.4314   -1.6894 C.3       6 UNK        -0.1929 
     42 C          30.1409   30.8582   -0.2342 C.2       6 UNK         0.5070 
     43 O          30.2261   32.0075   -0.6688 O.2       6 UNK        -0.5237 
     44 N          31.1559   30.2233    0.3673 N.am      7 UNK        -0.4739 
     45 CA         32.4662   30.8095    0.6680 C.3       7 UNK         0.0276 
     46 CB         33.4927   29.6741    0.8208 C.3       7 UNK        -0.1927 
     47 C          32.4111   31.7373    1.9004 C.2       7 UNK         0.5013 
     48 O          33.1383   31.5184    2.8746 O.2       7 UNK        -0.5193 
     49 N          31.5056   32.7271    1.8462 N.am      8 UNK        -0.4253 
     50 CA         31.2328   33.7912    2.8252 C.3       8 UNK         0.0242 
     51 CB         32.3886   34.8138    2.8060 C.3       8 UNK        -0.2000 
     52 C          30.9293   33.3008    4.2575 C.2       8 UNK         0.4948 
     53 O          31.1222   34.0606    5.2079 O.2       8 UNK        -0.5275 
     54 N          30.5209   32.0289    4.3954 N.am      9 UNK        -0.4246 
     55 CA         30.4471   31.2441    5.6361 C.3       9 UNK         0.0261 
     56 CB         29.2871   31.7392    6.5246 C.3       9 UNK        -0.1959 
     57 C          31.7846   31.1476    6.4105 C.2       9 UNK         0.5033 
     58 O          31.7684   30.8272    7.6002 O.2       9 UNK        -0.5390 
     59 N          32.9089   31.4228    5.7348 N.am      10 UNK        -0.4215 
     60 CA         34.2523   31.5118    6.3097 C.3       10 UNK         0.0240 
     61 CB         34.8281   32.9029    5.9951 C.3       10 UNK        -0.1982 
     62 C          35.1898   30.4210    5.7737 C.2       10 UNK         0.4970 
     63 O          36.1556   30.0850    6.4598 O.2       10 UNK        -0.4916 
     64 N          34.9001   29.8966    4.5741 N.am      11 UNK        -0.4279 
     65 CA         35.6637   28.8421    3.8817 C.3       11 UNK         0.1003 
     66 C          37.0306   29.3173    3.3021 C.2       11 UNK         0.5709 
     67 N          37.2768   30.6158    3.1726 N.am      11 UNK        -0.7358 
     68 O          37.8706   28.5005    2.9312 O.2       11 UNK        -0.4999 
     69 C69        35.7832   27.5111    4.6881 C.3       12 UNK        -0.0954 
     70 S70        34.2387   26.8591    5.4197 S.3       12 UNK        -0.2268 
     71 C71        33.0247   27.0734    4.0841 C.3       12 UNK         0.0203 
     72 H72        28.2114   17.1735   -1.4809 H         1 UNK         0.0888 
     73 H73        29.8828   17.3072   -0.9271 H         1 UNK         0.0888 
     74 H74        28.5698   17.2005    0.2471 H         1 UNK         0.0888 
     75 H75        28.0567   19.1779    1.1602 H         1 UNK         0.3017 
     76 H76        28.9672   21.6750    0.0057 H         1 UNK         0.0873 
     77 H77        28.9982   20.9757    2.5104 H         1 UNK         0.0745 
     78 H78        27.3113   21.3903    2.5629 H         1 UNK         0.0745 
     79 H79        29.2693   22.6236    4.4935 H         1 UNK         0.0705 
     80 H80        30.6835   22.6379    3.4640 H         1 UNK         0.0705 
     81 H81        32.0653   24.6427    3.2973 H         1 UNK         0.1334 
     82 H82        31.0553   28.0684    5.6680 H         1 UNK         0.1417 
     83 H83        28.2947   24.8011    5.3331 H         1 UNK         0.1562 
     84 H84        28.9433   28.2386    6.7691 H         1 UNK         0.0748 
     85 H85        28.3411   26.7003    7.3376 H         1 UNK         0.0748 
     86 H86        28.0490   29.5739    4.8286 H         1 UNK         0.0940 
     87 H87        26.5092   29.3622    4.0560 H         1 UNK         0.0940 
     88 H88        29.0945   27.9045    3.3295 H         1 UNK         0.0703 
     89 H89        27.9485   26.3041    2.4036 H         1 UNK         0.3081 
     90 H90        26.3571   25.0430    1.7093 H         1 UNK         0.0719 
     91 H91        23.5943   26.2498    1.2001 H         1 UNK         0.0809 
     92 H92        23.9897   24.5376    1.3635 H         1 UNK         0.0809 
     93 H93        24.1465   25.6124    2.7435 H         1 UNK         0.0809 
     94 H94        25.0863   25.3423   -0.6683 H         1 UNK         0.2990 
     95 H95        26.0054   26.0768   -2.8259 H         1 UNK         0.0690 
     96 H96        28.0315   25.6587   -4.2535 H         1 UNK         0.0788 
     97 H97        29.0361   25.5894   -2.8070 H         1 UNK         0.0788 
     98 H98        28.2139   27.0805   -3.2486 H         1 UNK         0.0788 
     99 H99        27.5761   23.5889   -2.5100 H         1 UNK         0.2993 
    100 H100       24.7246   21.5720   -1.8891 H         1 UNK         0.0949 
    101 H101       24.9677   21.6158   -4.3792 H         1 UNK         0.0767 
    102 H102       26.7197   21.6213   -4.2232 H         1 UNK         0.0767 
    103 H103       25.7863   20.2252   -3.6862 H         1 UNK         0.0767 
    104 H104       27.5408   21.0137   -1.9365 H         1 UNK         0.3013 
    105 H105       28.3866   28.1807    0.4541 H         1 UNK         0.3121 
    106 H106       28.0116   30.8728   -0.2447 H         1 UNK         0.0774 
    107 H107       28.8126   30.1404   -2.5038 H         1 UNK         0.0815 
    108 H108       29.3863   28.6294   -1.8089 H         1 UNK         0.0815 
    109 H109       27.6607   29.0081   -1.8171 H         1 UNK         0.0815 
    110 H110       30.9865   29.2893    0.7111 H         1 UNK         0.2987 
    111 H111       32.7800   31.4265   -0.1771 H         1 UNK         0.0949 
    112 H112       33.2131   28.9880    1.6193 H         1 UNK         0.0806 
    113 H113       33.5814   29.0960   -0.0992 H         1 UNK         0.0806 
    114 H114       34.4841   30.0687    1.0481 H         1 UNK         0.0806 
    115 H115       30.9373   32.7560    1.0035 H         1 UNK         0.3010 
    116 H116       30.3293   34.2979    2.4831 H         1 UNK         0.0829 
    117 H117       32.5807   35.1771    1.7965 H         1 UNK         0.0813 
    118 H118       32.1578   35.6848    3.4207 H         1 UNK         0.0813 
    119 H119       33.3138   34.3808    3.1882 H         1 UNK         0.0813 
    120 H120       30.2923   31.5204    3.5476 H         1 UNK         0.3038 
    121 H121       30.2157   30.2268    5.3240 H         1 UNK         0.0769 
    122 H122       29.4919   32.7262    6.9405 H         1 UNK         0.0811 
    123 H123       29.1171   31.0621    7.3626 H         1 UNK         0.0811 
    124 H124       28.3543   31.7997    5.9642 H         1 UNK         0.0811 
    125 H125       32.8319   31.6389    4.7439 H         1 UNK         0.3204 
    126 H126       34.2091   31.3975    7.3948 H         1 UNK         0.0748 
    127 H127       34.2031   33.6916    6.4152 H         1 UNK         0.0771 
    128 H128       35.8268   33.0199    6.4183 H         1 UNK         0.0771 
    129 H129       34.9034   33.0758    4.9206 H         1 UNK         0.0771 
    130 H130       34.1450   30.3088    4.0370 H         1 UNK         0.2980 
    131 H131       35.0832   28.6123    2.9911 H         1 UNK         0.0545 
    132 H132       38.1586   30.9143    2.7869 H         1 UNK         0.3459 
    133 H133       36.5914   31.2971    3.4554 H         1 UNK         0.3459 
    134 H134       36.1848   26.7256    4.0456 H         1 UNK         0.0616 
    135 H135       36.5049   27.6245    5.4983 H         1 UNK         0.0616 
    136 H136       32.8622   28.1354    3.8996 H         1 UNK         0.0634 
    137 H137       33.4202   26.6476    3.1606 H         1 UNK         0.0634 
@<TRIPOS>BOND
     1    1    2 1    
     2    1   72 1    
     3    1   73 1    
     4    1   74 1    
     5    2    3 2    
     6    2    4 am   BACKBONE|DICT|INTERRES
     7    4    5 1    
     8    4   75 1    
     9    5    6 1    
    10    5   35 1    
    11    5   76 1    
    12    6    7 1    
    13    6   77 1    
    14    6   78 1    
    15    7    8 1    
    16    8    9 1    
    17    8   79 1    
    18    8   80 1    
    19    9   10 ar   
    20    9   14 ar   
    21   10   11 ar   
    22   10   81 1    
    23   11   12 ar   
    24   11   71 1    
    25   12   13 ar   
    26   12   82 1    
    27   13   14 ar   
    28   13   15 1    
    29   14   83 1    
    30   15   16 1    
    31   15   84 1    
    32   15   85 1    
    33   16   17 1    
    34   17   18 1    
    35   17   86 1    
    36   17   87 1    
    37   18   19 1    
    38   18   37 1    
    39   18   88 1    
    40   19   20 am   BACKBONE|DICT|INTERRES
    41   19   89 1    
    42   20   21 2    
    43   20   22 1    
    44   22   23 1    
    45   22   24 1    
    46   22   90 1    
    47   23   91 1    
    48   23   92 1    
    49   23   93 1    
    50   24   25 am   BACKBONE|DICT|INTERRES
    51   24   94 1    
    52   25   26 2    
    53   25   27 1    
    54   27   28 1    
    55   27   29 1    
    56   27   95 1    
    57   28   96 1    
    58   28   97 1    
    59   28   98 1    
    60   29   30 am   BACKBONE|DICT|INTERRES
    61   29   99 1    
    62   30   31 2    
    63   30   32 1    
    64   32   33 1    
    65   32   34 1    
    66   32  100 1    
    67   33  101 1    
    68   33  102 1    
    69   33  103 1    
    70   34   35 am   BACKBONE|DICT|INTERRES
    71   34  104 1    
    72   35   36 2    
    73   37   38 2    
    74   37   39 am   BACKBONE|DICT|INTERRES
    75   39   40 1    
    76   39  105 1    
    77   40   41 1    
    78   40   42 1    
    79   40  106 1    
    80   41  107 1    
    81   41  108 1    
    82   41  109 1    
    83   42   43 2    
    84   42   44 am   BACKBONE|DICT|INTERRES
    85   44   45 1    
    86   44  110 1    
    87   45   46 1    
    88   45   47 1    
    89   45  111 1    
    90   46  112 1    
    91   46  113 1    
    92   46  114 1    
    93   47   48 2    
    94   47   49 am   BACKBONE|DICT|INTERRES
    95   49   50 1    
    96   49  115 1    
    97   50   51 1    
    98   50   52 1    
    99   50  116 1    
   100   51  117 1    
   101   51  118 1    
   102   51  119 1    
   103   52   53 2    
   104   52   54 am   BACKBONE|DICT|INTERRES
   105   54   55 1    
   106   54  120 1    
   107   55   56 1    
   108   55   57 1    
   109   55  121 1    
   110   56  122 1    
   111   56  123 1    
   112   56  124 1    
   113   57   58 2    
   114   57   59 am   BACKBONE|DICT|INTERRES
   115   59   60 1    
   116   59  125 1    
   117   60   61 1    
   118   60   62 1    
   119   60  126 1    
   120   61  127 1    
   121   61  128 1    
   122   61  129 1    
   123   62   63 2    
   124   62   64 am   BACKBONE|DICT|INTERRES
   125   64   65 1    
   126   64  130 1    
   127   65   66 1    
   128   65   69 1    
   129   65  131 1    
   130   66   67 am   BACKBONE|DICT|INTERRES
   131   66   68 2    
   132   67  132 1    
   133   67  133 1    
   134   69   70 1    
   135   69  134 1    
   136   69  135 1    
   137   70   71 1    
   138   71  136 1    
   139   71  137 1    
@<TRIPOS>SUBSTRUCTURE
     1 UNK         1 GROUP             0       ****    0 ROOT    
