@<TRIPOS>MOLECULE
3R136
137   139    1
SMALL
USER_CHARGES


@<TRIPOS>ATOM
      1 CA         25.1548   25.0761    4.0823 C.3       0 UNK        -0.1979 
      2 C          25.7886   24.0693    3.1338 C.2       0 UNK         0.4864 
      3 O          25.0960   23.5102    2.2815 O.2       0 UNK        -0.5359 
      4 N          27.1008   23.8333    3.2730 N.am      1 UNK        -0.4318 
      5 CA         27.8961   23.0058    2.3608 C.3       1 UNK         0.0824 
      6 C6         29.2927   22.7009    2.9527 C.3       12 UNK        -0.0944 
      7 S7         30.1662   21.3947    2.0225 S.3       12 UNK        -0.2672 
      8 C8         31.9069   21.7042    2.4677 C.3       12 UNK         0.0333 
      9 C9         32.3805   23.1113    2.1192 C.ar      12 UNK        -0.0807 
     10 C10        32.9476   23.9179    3.1099 C.ar      12 UNK        -0.0894 
     11 C11        33.3976   25.2046    2.8058 C.ar      12 UNK        -0.0804 
     12 C12        33.2804   25.6848    1.4994 C.ar      12 UNK        -0.0824 
     13 C13        32.7023   24.8957    0.4973 C.ar      12 UNK        -0.0762 
     14 C14        32.2638   23.6056    0.8152 C.ar      12 UNK        -0.0782 
     15 C15        32.5697   25.4006   -0.9386 C.3       12 UNK         0.0230 
     16 S16        32.1805   27.1790   -1.0756 S.3       12 UNK        -0.2608 
     17 C17        30.5604   27.2920   -0.2387 C.3       12 UNK        -0.0989 
     18 CA         29.5397   28.1676   -1.0240 C.3       5 UNK         0.0716 
     19 N          28.1523   27.8880   -0.6317 N.am      5 UNK        -0.4135 
     20 C          27.5997   28.2241    0.5473 C.2       4 UNK         0.5031 
     21 O          28.2277   28.7604    1.4600 O.2       4 UNK        -0.5229 
     22 CA         26.1005   27.9676    0.7568 C.3       4 UNK         0.0329 
     23 CB         25.3045   29.2632    0.5029 C.3       4 UNK        -0.2001 
     24 N          25.6135   26.8743   -0.0800 N.am      4 UNK        -0.4303 
     25 C          24.4387   26.2471    0.0184 C.2       3 UNK         0.5044 
     26 O          23.5558   26.5605    0.8176 O.2       3 UNK        -0.5152 
     27 CA         24.2104   25.0481   -0.9233 C.3       3 UNK         0.0319 
     28 CB         23.6483   25.5064   -2.2833 C.3       3 UNK        -0.2001 
     29 N          25.3829   24.1725   -1.0841 N.am      3 UNK        -0.4354 
     30 C          26.5651   24.4328   -1.6655 C.2       2 UNK         0.4964 
     31 O          26.8372   25.4979   -2.2259 O.2       2 UNK        -0.5047 
     32 CA         27.6462   23.3468   -1.4917 C.3       2 UNK         0.0288 
     33 CB         29.0224   23.7724   -2.0438 C.3       2 UNK        -0.2113 
     34 N          27.7598   22.9106   -0.0914 N.am      2 UNK        -0.4145 
     35 C          27.9844   23.6904    0.9801 C.2       1 UNK         0.5006 
     36 O          28.2244   24.8982    0.9248 O.2       1 UNK        -0.5103 
     37 C          29.8119   29.6932   -0.9632 C.2       5 UNK         0.5055 
     38 O          28.9905   30.4721   -1.4551 O.2       5 UNK        -0.5220 
     39 N          30.9257   30.0965   -0.3423 N.am      6 UNK        -0.4450 
     40 CA         31.2104   31.4718    0.0429 C.3       6 UNK         0.0367 
     41 CB         32.7299   31.7061   -0.0003 C.3       6 UNK        -0.1929 
     42 C          30.6613   31.7106    1.4563 C.2       6 UNK         0.5070 
     43 O          31.1366   31.0722    2.3979 O.2       6 UNK        -0.5237 
     44 N          29.6930   32.6314    1.5661 N.am      7 UNK        -0.4739 
     45 CA         29.1496   33.2277    2.7959 C.3       7 UNK         0.0276 
     46 CB         30.1330   34.2937    3.3236 C.3       7 UNK        -0.1927 
     47 C          28.7183   32.2215    3.8851 C.2       7 UNK         0.5013 
     48 O          29.0612   32.4045    5.0544 O.2       7 UNK        -0.5193 
     49 N          27.9632   31.1903    3.4762 N.am      8 UNK        -0.4253 
     50 CA         27.4561   30.0854    4.3038 C.3       8 UNK         0.0242 
     51 CB         26.4684   30.5898    5.3788 C.3       8 UNK        -0.2000 
     52 C          28.6033   29.2304    4.8763 C.2       8 UNK         0.4948 
     53 O          28.7010   29.0499    6.0918 O.2       8 UNK        -0.5275 
     54 N          29.4436   28.7273    3.9612 N.am      9 UNK        -0.4246 
     55 CA         30.6275   27.8925    4.1779 C.3       9 UNK         0.0261 
     56 CB         30.2127   26.4824    4.6480 C.3       9 UNK        -0.1959 
     57 C          31.6732   28.5615    5.0907 C.2       9 UNK         0.5033 
     58 O          32.1336   27.9534    6.0608 O.2       9 UNK        -0.5390 
     59 N          32.0615   29.7969    4.7488 N.am      10 UNK        -0.4215 
     60 CA         33.0592   30.5949    5.4659 C.3       10 UNK         0.0240 
     61 CB         32.8260   32.0838    5.1537 C.3       10 UNK        -0.1982 
     62 C          34.5053   30.1481    5.1653 C.2       10 UNK         0.4970 
     63 O          35.2927   30.9278    4.6255 O.2       10 UNK        -0.4916 
     64 N          34.8355   28.9045    5.5339 N.am      11 UNK        -0.4279 
     65 CA         36.2022   28.3522    5.4980 C.3       11 UNK         0.1003 
     66 C          37.1298   28.8941    6.6272 C.2       11 UNK         0.5709 
     67 N          36.6164   29.5520    7.6609 N.am      11 UNK        -0.7358 
     68 O          38.3445   28.7218    6.5571 O.2       11 UNK        -0.4999 
     69 C69        36.1926   26.7984    5.4846 C.3       12 UNK        -0.0954 
     70 S70        35.8001   26.0906    3.8505 S.3       12 UNK        -0.2268 
     71 C71        33.9876   26.0848    3.8937 C.3       12 UNK         0.0203 
     72 H72        24.3948   24.5897    4.6930 H         1 UNK         0.0888 
     73 H73        25.8893   25.5291    4.7481 H         1 UNK         0.0888 
     74 H74        24.6765   25.8733    3.5133 H         1 UNK         0.0888 
     75 H75        27.6216   24.3335    3.9778 H         1 UNK         0.3017 
     76 H76        27.3628   22.0592    2.2470 H         1 UNK         0.0873 
     77 H77        29.8947   23.6103    2.9908 H         1 UNK         0.0745 
     78 H78        29.1966   22.3570    3.9838 H         1 UNK         0.0745 
     79 H79        32.0307   21.5052    3.5334 H         1 UNK         0.0705 
     80 H80        32.5363   20.9823    1.9458 H         1 UNK         0.0705 
     81 H81        33.0399   23.5455    4.1212 H         1 UNK         0.1334 
     82 H82        33.6408   26.6775    1.2680 H         1 UNK         0.1417 
     83 H83        31.8248   22.9812    0.0487 H         1 UNK         0.1562 
     84 H84        31.8060   24.8366   -1.4750 H         1 UNK         0.0748 
     85 H85        33.5105   25.2120   -1.4570 H         1 UNK         0.0748 
     86 H86        30.6936   27.6432    0.7857 H         1 UNK         0.0940 
     87 H87        30.1652   26.2823   -0.1349 H         1 UNK         0.0940 
     88 H88        29.6011   27.8913   -2.0778 H         1 UNK         0.0703 
     89 H89        27.5768   27.4862   -1.3580 H         1 UNK         0.3081 
     90 H90        25.9705   27.6711    1.7996 H         1 UNK         0.0719 
     91 H91        25.3539   29.5645   -0.5441 H         1 UNK         0.0809 
     92 H92        24.2541   29.1523    0.7707 H         1 UNK         0.0809 
     93 H93        25.6982   30.0878    1.0988 H         1 UNK         0.0809 
     94 H94        26.2683   26.4816   -0.7496 H         1 UNK         0.2990 
     95 H95        23.4493   24.4262   -0.4489 H         1 UNK         0.0690 
     96 H96        23.4288   24.6557   -2.9285 H         1 UNK         0.0788 
     97 H97        24.3397   26.1611   -2.8145 H         1 UNK         0.0788 
     98 H98        22.7185   26.0610   -2.1502 H         1 UNK         0.0788 
     99 H99        25.3069   23.2940   -0.5889 H         1 UNK         0.2993 
    100 H100       27.3112   22.4824   -2.0672 H         1 UNK         0.0949 
    101 H101       29.7678   22.9900   -1.9018 H         1 UNK         0.0767 
    102 H102       28.9663   23.9801   -3.1130 H         1 UNK         0.0767 
    103 H103       29.3867   24.6762   -1.5585 H         1 UNK         0.0767 
    104 H104       27.5884   21.9275    0.0701 H         1 UNK         0.3013 
    105 H105       31.5418   29.3889    0.0333 H         1 UNK         0.3121 
    106 H106       30.7409   32.1649   -0.6587 H         1 UNK         0.0774 
    107 H107       33.2651   31.0398    0.6780 H         1 UNK         0.0815 
    108 H108       32.9733   32.7290    0.2899 H         1 UNK         0.0815 
    109 H109       33.1259   31.5500   -1.0038 H         1 UNK         0.0815 
    110 H110       29.3450   33.0388    0.7084 H         1 UNK         0.2987 
    111 H111       28.2359   33.7491    2.5057 H         1 UNK         0.0949 
    112 H112       31.0865   33.8532    3.6119 H         1 UNK         0.0806 
    113 H113       30.3332   35.0552    2.5699 H         1 UNK         0.0806 
    114 H114       29.7307   34.8073    4.1979 H         1 UNK         0.0806 
    115 H115       27.7996   31.0975    2.4828 H         1 UNK         0.3010 
    116 H116       26.8899   29.4332    3.6378 H         1 UNK         0.0829 
    117 H117       26.9582   31.2163    6.1247 H         1 UNK         0.0813 
    118 H118       25.6588   31.1679    4.9337 H         1 UNK         0.0813 
    119 H119       26.0150   29.7523    5.9103 H         1 UNK         0.0813 
    120 H120       29.2131   28.9136    2.9856 H         1 UNK         0.3038 
    121 H121       31.1048   27.7823    3.2034 H         1 UNK         0.0769 
    122 H122       31.0783   25.8255    4.7334 H         1 UNK         0.0811 
    123 H123       29.7268   26.5079    5.6238 H         1 UNK         0.0811 
    124 H124       29.5262   26.0199    3.9390 H         1 UNK         0.0811 
    125 H125       31.6587   30.2263    3.9141 H         1 UNK         0.3204 
    126 H126       32.9000   30.4613    6.5380 H         1 UNK         0.0748 
    127 H127       33.5239   32.7159    5.7043 H         1 UNK         0.0771 
    128 H128       32.9566   32.2974    4.0921 H         1 UNK         0.0771 
    129 H129       31.8195   32.3910    5.4378 H         1 UNK         0.0771 
    130 H130       34.1122   28.3260    5.9488 H         1 UNK         0.2980 
    131 H131       36.6666   28.6862    4.5680 H         1 UNK         0.0545 
    132 H132       37.2332   29.8991    8.3784 H         1 UNK         0.3459 
    133 H133       35.6228   29.6951    7.7374 H         1 UNK         0.3459 
    134 H134       37.1761   26.4013    5.7439 H         1 UNK         0.0616 
    135 H135       35.5100   26.4040    6.2391 H         1 UNK         0.0616 
    136 H136       33.6377   25.7626    4.8757 H         1 UNK         0.0634 
    137 H137       33.6425   27.1070    3.7511 H         1 UNK         0.0634 
@<TRIPOS>BOND
     1    1    2 1    
     2    1   72 1    
     3    1   73 1    
     4    1   74 1    
     5    2    3 2    
     6    2    4 am   BACKBONE|DICT|INTERRES
     7    4    5 1    
     8    4   75 1    
     9    5    6 1    
    10    5   35 1    
    11    5   76 1    
    12    6    7 1    
    13    6   77 1    
    14    6   78 1    
    15    7    8 1    
    16    8    9 1    
    17    8   79 1    
    18    8   80 1    
    19    9   10 ar   
    20    9   14 ar   
    21   10   11 ar   
    22   10   81 1    
    23   11   12 ar   
    24   11   71 1    
    25   12   13 ar   
    26   12   82 1    
    27   13   14 ar   
    28   13   15 1    
    29   14   83 1    
    30   15   16 1    
    31   15   84 1    
    32   15   85 1    
    33   16   17 1    
    34   17   18 1    
    35   17   86 1    
    36   17   87 1    
    37   18   19 1    
    38   18   37 1    
    39   18   88 1    
    40   19   20 am   BACKBONE|DICT|INTERRES
    41   19   89 1    
    42   20   21 2    
    43   20   22 1    
    44   22   23 1    
    45   22   24 1    
    46   22   90 1    
    47   23   91 1    
    48   23   92 1    
    49   23   93 1    
    50   24   25 am   BACKBONE|DICT|INTERRES
    51   24   94 1    
    52   25   26 2    
    53   25   27 1    
    54   27   28 1    
    55   27   29 1    
    56   27   95 1    
    57   28   96 1    
    58   28   97 1    
    59   28   98 1    
    60   29   30 am   BACKBONE|DICT|INTERRES
    61   29   99 1    
    62   30   31 2    
    63   30   32 1    
    64   32   33 1    
    65   32   34 1    
    66   32  100 1    
    67   33  101 1    
    68   33  102 1    
    69   33  103 1    
    70   34   35 am   BACKBONE|DICT|INTERRES
    71   34  104 1    
    72   35   36 2    
    73   37   38 2    
    74   37   39 am   BACKBONE|DICT|INTERRES
    75   39   40 1    
    76   39  105 1    
    77   40   41 1    
    78   40   42 1    
    79   40  106 1    
    80   41  107 1    
    81   41  108 1    
    82   41  109 1    
    83   42   43 2    
    84   42   44 am   BACKBONE|DICT|INTERRES
    85   44   45 1    
    86   44  110 1    
    87   45   46 1    
    88   45   47 1    
    89   45  111 1    
    90   46  112 1    
    91   46  113 1    
    92   46  114 1    
    93   47   48 2    
    94   47   49 am   BACKBONE|DICT|INTERRES
    95   49   50 1    
    96   49  115 1    
    97   50   51 1    
    98   50   52 1    
    99   50  116 1    
   100   51  117 1    
   101   51  118 1    
   102   51  119 1    
   103   52   53 2    
   104   52   54 am   BACKBONE|DICT|INTERRES
   105   54   55 1    
   106   54  120 1    
   107   55   56 1    
   108   55   57 1    
   109   55  121 1    
   110   56  122 1    
   111   56  123 1    
   112   56  124 1    
   113   57   58 2    
   114   57   59 am   BACKBONE|DICT|INTERRES
   115   59   60 1    
   116   59  125 1    
   117   60   61 1    
   118   60   62 1    
   119   60  126 1    
   120   61  127 1    
   121   61  128 1    
   122   61  129 1    
   123   62   63 2    
   124   62   64 am   BACKBONE|DICT|INTERRES
   125   64   65 1    
   126   64  130 1    
   127   65   66 1    
   128   65   69 1    
   129   65  131 1    
   130   66   67 am   BACKBONE|DICT|INTERRES
   131   66   68 2    
   132   67  132 1    
   133   67  133 1    
   134   69   70 1    
   135   69  134 1    
   136   69  135 1    
   137   70   71 1    
   138   71  136 1    
   139   71  137 1    
@<TRIPOS>SUBSTRUCTURE
     1 UNK         1 GROUP             0       ****    0 ROOT    
