@<TRIPOS>MOLECULE
3R136
137   139    1
SMALL
USER_CHARGES


@<TRIPOS>ATOM
      1 CA         34.2425   23.6445   -0.7204 C.3       0 UNK        -0.1979 
      2 C          32.7642   23.3498   -0.5162 C.2       0 UNK         0.4864 
      3 O          32.1764   22.6027   -1.2997 O.2       0 UNK        -0.5359 
      4 N          32.1564   23.9529    0.5136 N.am      1 UNK        -0.4318 
      5 CA         30.7649   23.8134    0.9769 C.3       1 UNK         0.0824 
      6 C6         30.3730   22.3734    1.3949 C.3       12 UNK        -0.0944 
      7 S7         31.4717   21.7270    2.7007 S.3       12 UNK        -0.2672 
      8 C8         30.3831   21.7521    4.1647 C.3       12 UNK         0.0333 
      9 C9         29.9708   23.1461    4.6394 C.ar      12 UNK        -0.0807 
     10 C10        30.8753   24.2157    4.6642 C.ar      12 UNK        -0.0894 
     11 C11        30.4934   25.4632    5.1710 C.ar      12 UNK        -0.0804 
     12 C12        29.1988   25.6350    5.6720 C.ar      12 UNK        -0.0824 
     13 C13        28.2885   24.5749    5.6613 C.ar      12 UNK        -0.0762 
     14 C14        28.6777   23.3395    5.1358 C.ar      12 UNK        -0.0782 
     15 C15        26.9033   24.7357    6.2701 C.3       12 UNK         0.0230 
     16 S16        25.6315   25.0515    5.0087 S.3       12 UNK        -0.2608 
     17 C17        25.7949   26.8495    4.7331 C.3       12 UNK        -0.0989 
     18 CA         26.2276   27.2070    3.2891 C.3       5 UNK         0.0716 
     19 N          25.3301   26.6089    2.2942 N.am      5 UNK        -0.4135 
     20 C          25.4745   26.6686    0.9652 C.2       4 UNK         0.5031 
     21 O          26.3892   27.2588    0.3829 O.2       4 UNK        -0.5229 
     22 CA         24.3956   25.9564    0.1421 C.3       4 UNK         0.0329 
     23 CB         23.1569   26.8524   -0.0457 C.3       4 UNK        -0.2001 
     24 N          24.9722   25.6158   -1.1521 N.am      4 UNK        -0.4303 
     25 C          24.5469   24.6596   -1.9841 C.2       3 UNK         0.5044 
     26 O          23.5519   23.9633   -1.7778 O.2       3 UNK        -0.5152 
     27 CA         25.3680   24.4378   -3.2683 C.3       3 UNK         0.0319 
     28 CB         24.7235   25.1785   -4.4515 C.3       3 UNK        -0.2001 
     29 N          26.7671   24.8600   -3.1405 N.am      3 UNK        -0.4354 
     30 C          27.6971   24.2075   -2.4289 C.2       2 UNK         0.4964 
     31 O          27.4852   23.1328   -1.8616 O.2       2 UNK        -0.5047 
     32 CA         29.1022   24.8447   -2.3843 C.3       2 UNK         0.0288 
     33 CB         29.0738   26.3910   -2.3559 C.3       2 UNK        -0.2113 
     34 N          29.9283   24.3284   -1.2869 N.am      2 UNK        -0.4145 
     35 C          29.7147   24.4355    0.0328 C.2       1 UNK         0.5006 
     36 O          28.7523   25.0204    0.5294 O.2       1 UNK        -0.5103 
     37 C          26.3161   28.7405    3.1352 C.2       5 UNK         0.5055 
     38 O          25.3331   29.3802    2.7492 O.2       5 UNK        -0.5220 
     39 N          27.4782   29.3003    3.4799 N.am      6 UNK        -0.4450 
     40 CA         27.7775   30.7289    3.4237 C.3       6 UNK         0.0367 
     41 CB         28.4717   31.0396    2.0807 C.3       6 UNK        -0.1929 
     42 C          28.6312   31.1048    4.6450 C.2       6 UNK         0.5070 
     43 O          28.6305   30.3776    5.6418 O.2       6 UNK        -0.5237 
     44 N          29.3573   32.2253    4.5507 N.am      7 UNK        -0.4739 
     45 CA         30.4415   32.5717    5.4714 C.3       7 UNK         0.0276 
     46 CB         30.8266   34.0450    5.2633 C.3       7 UNK        -0.1927 
     47 C          31.6539   31.6640    5.2112 C.2       7 UNK         0.5013 
     48 O          31.8883   31.2925    4.0578 O.2       7 UNK        -0.5193 
     49 N          32.4266   31.3589    6.2629 N.am      8 UNK        -0.4253 
     50 CA         33.5740   30.4388    6.2304 C.3       8 UNK         0.0242 
     51 CB         34.1878   30.3376    7.6358 C.3       8 UNK        -0.2000 
     52 C          34.6583   30.7881    5.1940 C.2       8 UNK         0.4948 
     53 O          35.2942   29.8815    4.6578 O.2       8 UNK        -0.5275 
     54 N          34.8188   32.0843    4.8952 N.am      9 UNK        -0.4246 
     55 CA         35.6971   32.5931    3.8396 C.3       9 UNK         0.0261 
     56 CB         35.8396   34.1158    3.9993 C.3       9 UNK        -0.1959 
     57 C          35.2256   32.2460    2.4126 C.2       9 UNK         0.5033 
     58 O          36.0540   32.2501    1.5006 O.2       9 UNK        -0.5390 
     59 N          33.9255   31.9709    2.2353 N.am      10 UNK        -0.4215 
     60 CA         33.3127   31.6127    0.9583 C.3       10 UNK         0.0240 
     61 CB         31.9733   32.3532    0.7995 C.3       10 UNK        -0.1982 
     62 C          33.1247   30.0941    0.8418 C.2       10 UNK         0.4970 
     63 O          33.5518   29.5219   -0.1618 O.2       10 UNK        -0.4916 
     64 N          32.4940   29.4661    1.8464 N.am      11 UNK        -0.4279 
     65 CA         32.2407   28.0136    1.8569 C.3       11 UNK         0.1003 
     66 C          33.4612   27.1333    2.2484 C.2       11 UNK         0.5709 
     67 N          34.5330   27.6723    2.8138 N.am      11 UNK        -0.7358 
     68 O          33.4384   25.9271    2.0191 O.2       11 UNK        -0.4999 
     69 C69        30.9533   27.6269    2.6335 C.3       12 UNK        -0.0954 
     70 S70        30.9401   28.1145    4.3879 S.3       12 UNK        -0.2268 
     71 C71        31.5016   26.6038    5.2383 C.3       12 UNK         0.0203 
     72 H72        34.6329   24.3161    0.0443 H         1 UNK         0.0888 
     73 H73        34.8170   22.7195   -0.6833 H         1 UNK         0.0888 
     74 H74        34.4025   24.1081   -1.6934 H         1 UNK         0.0888 
     75 H75        32.7096   24.5930    1.0831 H         1 UNK         0.3017 
     76 H76        30.7210   24.4175    1.8815 H         1 UNK         0.0873 
     77 H77        30.4136   21.6963    0.5403 H         1 UNK         0.0745 
     78 H78        29.3416   22.3459    1.7523 H         1 UNK         0.0745 
     79 H79        30.9024   21.2548    4.9847 H         1 UNK         0.0705 
     80 H80        29.5035   21.1438    3.9479 H         1 UNK         0.0705 
     81 H81        31.8850   24.0720    4.3041 H         1 UNK         0.1334 
     82 H82        28.9106   26.5903    6.0894 H         1 UNK         0.1417 
     83 H83        27.9752   22.5167    5.1426 H         1 UNK         0.1562 
     84 H84        26.8950   25.5289    7.0193 H         1 UNK         0.0748 
     85 H85        26.6384   23.8221    6.8047 H         1 UNK         0.0748 
     86 H86        26.5014   27.2651    5.4540 H         1 UNK         0.0940 
     87 H87        24.8310   27.3072    4.9661 H         1 UNK         0.0940 
     88 H88        27.2218   26.7896    3.1101 H         1 UNK         0.0703 
     89 H89        24.5382   26.1118    2.6737 H         1 UNK         0.3081 
     90 H90        24.1125   25.0364    0.6584 H         1 UNK         0.0719 
     91 H91        22.7234   27.1298    0.9159 H         1 UNK         0.0809 
     92 H92        23.4068   27.7759   -0.5696 H         1 UNK         0.0809 
     93 H93        22.3790   26.3441   -0.6156 H         1 UNK         0.0809 
     94 H94        25.8276   26.1167   -1.3604 H         1 UNK         0.2990 
     95 H95        25.3514   23.3678   -3.4874 H         1 UNK         0.0690 
     96 H96        24.7176   26.2585   -4.2982 H         1 UNK         0.0788 
     97 H97        23.6881   24.8640   -4.5906 H         1 UNK         0.0788 
     98 H98        25.2502   24.9730   -5.3836 H         1 UNK         0.0788 
     99 H99        27.0243   25.7244   -3.5950 H         1 UNK         0.2993 
    100 H100       29.6027   24.5360   -3.3033 H         1 UNK         0.0949 
    101 H101       28.4721   26.7710   -1.5289 H         1 UNK         0.0767 
    102 H102       30.0784   26.8003   -2.2467 H         1 UNK         0.0767 
    103 H103       28.6662   26.8042   -3.2788 H         1 UNK         0.0767 
    104 H104       30.7225   23.7534   -1.5598 H         1 UNK         0.3013 
    105 H105       28.2105   28.7322    3.8868 H         1 UNK         0.3121 
    106 H106       26.8542   31.3078    3.4926 H         1 UNK         0.0774 
    107 H107       28.6059   32.1113    1.9331 H         1 UNK         0.0815 
    108 H108       29.4536   30.5682    2.0209 H         1 UNK         0.0815 
    109 H109       27.8808   30.6782    1.2387 H         1 UNK         0.0815 
    110 H110       29.3175   32.7512    3.6904 H         1 UNK         0.2987 
    111 H111       30.0967   32.4303    6.4982 H         1 UNK         0.0949 
    112 H112       29.9760   34.7050    5.4347 H         1 UNK         0.0806 
    113 H113       31.6127   34.3466    5.9569 H         1 UNK         0.0806 
    114 H114       31.1954   34.2286    4.2529 H         1 UNK         0.0806 
    115 H115       32.1726   31.7242    7.1697 H         1 UNK         0.3010 
    116 H116       33.1862   29.4549    5.9595 H         1 UNK         0.0829 
    117 H117       33.4617   29.9707    8.3615 H         1 UNK         0.0813 
    118 H118       35.0293   29.6431    7.6450 H         1 UNK         0.0813 
    119 H119       34.5575   31.3022    7.9860 H         1 UNK         0.0813 
    120 H120       34.2558   32.7613    5.3890 H         1 UNK         0.3038 
    121 H121       36.6821   32.1411    3.9751 H         1 UNK         0.0769 
    122 H122       36.5148   34.5255    3.2465 H         1 UNK         0.0811 
    123 H123       36.2500   34.3770    4.9749 H         1 UNK         0.0811 
    124 H124       34.8815   34.6253    3.8885 H         1 UNK         0.0811 
    125 H125       33.3141   31.9187    3.0467 H         1 UNK         0.3204 
    126 H126       33.9574   31.9282    0.1351 H         1 UNK         0.0748 
    127 H127       31.4791   32.0739   -0.1320 H         1 UNK         0.0771 
    128 H128       31.2840   32.1336    1.6141 H         1 UNK         0.0771 
    129 H129       32.1228   33.4327    0.7758 H         1 UNK         0.0771 
    130 H130       32.1855   29.9911    2.6603 H         1 UNK         0.2980 
    131 H131       32.0331   27.7286    0.8234 H         1 UNK         0.0545 
    132 H132       35.3079   27.0738    3.0477 H         1 UNK         0.3459 
    133 H133       34.5612   28.6453    3.0871 H         1 UNK         0.3459 
    134 H134       30.0952   28.1051    2.1593 H         1 UNK         0.0616 
    135 H135       30.7585   26.5584    2.5571 H         1 UNK         0.0616 
    136 H136       32.4668   26.2989    4.8333 H         1 UNK         0.0634 
    137 H137       31.6780   26.8479    6.2865 H         1 UNK         0.0634 
@<TRIPOS>BOND
     1    1    2 1    
     2    1   72 1    
     3    1   73 1    
     4    1   74 1    
     5    2    3 2    
     6    2    4 am   BACKBONE|DICT|INTERRES
     7    4    5 1    
     8    4   75 1    
     9    5    6 1    
    10    5   35 1    
    11    5   76 1    
    12    6    7 1    
    13    6   77 1    
    14    6   78 1    
    15    7    8 1    
    16    8    9 1    
    17    8   79 1    
    18    8   80 1    
    19    9   10 ar   
    20    9   14 ar   
    21   10   11 ar   
    22   10   81 1    
    23   11   12 ar   
    24   11   71 1    
    25   12   13 ar   
    26   12   82 1    
    27   13   14 ar   
    28   13   15 1    
    29   14   83 1    
    30   15   16 1    
    31   15   84 1    
    32   15   85 1    
    33   16   17 1    
    34   17   18 1    
    35   17   86 1    
    36   17   87 1    
    37   18   19 1    
    38   18   37 1    
    39   18   88 1    
    40   19   20 am   BACKBONE|DICT|INTERRES
    41   19   89 1    
    42   20   21 2    
    43   20   22 1    
    44   22   23 1    
    45   22   24 1    
    46   22   90 1    
    47   23   91 1    
    48   23   92 1    
    49   23   93 1    
    50   24   25 am   BACKBONE|DICT|INTERRES
    51   24   94 1    
    52   25   26 2    
    53   25   27 1    
    54   27   28 1    
    55   27   29 1    
    56   27   95 1    
    57   28   96 1    
    58   28   97 1    
    59   28   98 1    
    60   29   30 am   BACKBONE|DICT|INTERRES
    61   29   99 1    
    62   30   31 2    
    63   30   32 1    
    64   32   33 1    
    65   32   34 1    
    66   32  100 1    
    67   33  101 1    
    68   33  102 1    
    69   33  103 1    
    70   34   35 am   BACKBONE|DICT|INTERRES
    71   34  104 1    
    72   35   36 2    
    73   37   38 2    
    74   37   39 am   BACKBONE|DICT|INTERRES
    75   39   40 1    
    76   39  105 1    
    77   40   41 1    
    78   40   42 1    
    79   40  106 1    
    80   41  107 1    
    81   41  108 1    
    82   41  109 1    
    83   42   43 2    
    84   42   44 am   BACKBONE|DICT|INTERRES
    85   44   45 1    
    86   44  110 1    
    87   45   46 1    
    88   45   47 1    
    89   45  111 1    
    90   46  112 1    
    91   46  113 1    
    92   46  114 1    
    93   47   48 2    
    94   47   49 am   BACKBONE|DICT|INTERRES
    95   49   50 1    
    96   49  115 1    
    97   50   51 1    
    98   50   52 1    
    99   50  116 1    
   100   51  117 1    
   101   51  118 1    
   102   51  119 1    
   103   52   53 2    
   104   52   54 am   BACKBONE|DICT|INTERRES
   105   54   55 1    
   106   54  120 1    
   107   55   56 1    
   108   55   57 1    
   109   55  121 1    
   110   56  122 1    
   111   56  123 1    
   112   56  124 1    
   113   57   58 2    
   114   57   59 am   BACKBONE|DICT|INTERRES
   115   59   60 1    
   116   59  125 1    
   117   60   61 1    
   118   60   62 1    
   119   60  126 1    
   120   61  127 1    
   121   61  128 1    
   122   61  129 1    
   123   62   63 2    
   124   62   64 am   BACKBONE|DICT|INTERRES
   125   64   65 1    
   126   64  130 1    
   127   65   66 1    
   128   65   69 1    
   129   65  131 1    
   130   66   67 am   BACKBONE|DICT|INTERRES
   131   66   68 2    
   132   67  132 1    
   133   67  133 1    
   134   69   70 1    
   135   69  134 1    
   136   69  135 1    
   137   70   71 1    
   138   71  136 1    
   139   71  137 1    
@<TRIPOS>SUBSTRUCTURE
     1 UNK         1 GROUP             0       ****    0 ROOT    
