@<TRIPOS>MOLECULE
3R136
137   139    1
SMALL
USER_CHARGES


@<TRIPOS>ATOM
      1 CA         28.4495   18.9084   -3.4956 C.3       0 UNK        -0.1979 
      2 C          28.6606   20.3714   -3.1357 C.2       0 UNK         0.4864 
      3 O          28.9308   21.1879   -4.0189 O.2       0 UNK        -0.5359 
      4 N          28.5381   20.7153   -1.8463 N.am      1 UNK        -0.4318 
      5 CA         28.6783   22.0761   -1.3214 C.3       1 UNK         0.0824 
      6 C6         29.0628   22.0634    0.1798 C.3       12 UNK        -0.0944 
      7 S7         29.6575   23.6894    0.7685 S.3       12 UNK        -0.2672 
      8 C8         31.2474   23.2524    1.5445 C.3       12 UNK         0.0333 
      9 C9         31.5166   24.1500    2.7401 C.ar      12 UNK        -0.0807 
     10 C10        32.4752   25.1660    2.6825 C.ar      12 UNK        -0.0894 
     11 C11        32.6855   26.0047    3.7835 C.ar      12 UNK        -0.0804 
     12 C12        31.9149   25.8307    4.9385 C.ar      12 UNK        -0.0824 
     13 C13        30.9624   24.8101    5.0077 C.ar      12 UNK        -0.0762 
     14 C14        30.7814   23.9640    3.9120 C.ar      12 UNK        -0.0782 
     15 C15        30.1018   24.6309    6.2486 C.3       12 UNK         0.0230 
     16 S16        28.3372   24.8849    5.8740 S.3       12 UNK        -0.2608 
     17 C17        28.2797   26.6792    5.5470 C.3       12 UNK        -0.0989 
     18 CA         28.4855   27.0727    4.0551 C.3       5 UNK         0.0716 
     19 N          27.6474   26.3452    3.0919 N.am      5 UNK        -0.4135 
     20 C          26.3097   26.2876    3.0381 C.2       4 UNK         0.5031 
     21 O          25.5674   26.8013    3.8788 O.2       4 UNK        -0.5229 
     22 CA         25.7104   25.5976    1.7958 C.3       4 UNK         0.0329 
     23 CB         24.2017   25.8762    1.6339 C.3       4 UNK        -0.2001 
     24 N          26.4131   25.9229    0.5461 N.am      4 UNK        -0.4303 
     25 C          26.6938   27.1459    0.0592 C.2       3 UNK         0.5044 
     26 O          26.4491   28.1992    0.6513 O.2       3 UNK        -0.5152 
     27 CA         27.3961   27.2203   -1.3111 C.3       3 UNK         0.0319 
     28 CB         28.8924   27.5163   -1.1216 C.3       3 UNK        -0.2001 
     29 N          27.2572   26.0101   -2.1207 N.am      3 UNK        -0.4354 
     30 C          26.1202   25.5733   -2.6823 C.2       2 UNK         0.4964 
     31 O          25.0613   26.2010   -2.6637 O.2       2 UNK        -0.5047 
     32 CA         26.1658   24.1879   -3.3582 C.3       2 UNK         0.0288 
     33 CB         26.2787   24.3354   -4.8842 C.3       2 UNK        -0.2113 
     34 N          27.2529   23.3249   -2.8776 N.am      2 UNK        -0.4145 
     35 C          27.4053   22.8991   -1.6156 C.2       1 UNK         0.5006 
     36 O          26.6006   23.1491   -0.7149 O.2       1 UNK        -0.5103 
     37 C          28.3862   28.6042    3.8936 C.2       5 UNK         0.5055 
     38 O          29.4153   29.2663    3.7512 O.2       5 UNK        -0.5220 
     39 N          27.1575   29.1344    3.9385 N.am      6 UNK        -0.4450 
     40 CA         26.8119   30.5544    4.0154 C.3       6 UNK         0.0367 
     41 CB         25.2837   30.6964    4.0954 C.3       6 UNK        -0.1929 
     42 C          27.3706   31.4263    2.8816 C.2       6 UNK         0.5070 
     43 O          27.8002   32.5476    3.1533 O.2       6 UNK        -0.5237 
     44 N          27.3635   30.9154    1.6423 N.am      7 UNK        -0.4739 
     45 CA         27.8961   31.6402    0.4832 C.3       7 UNK         0.0276 
     46 CB         27.1843   31.1702   -0.7940 C.3       7 UNK        -0.1927 
     47 C          29.4229   31.5082    0.3420 C.2       7 UNK         0.5013 
     48 O          30.0205   32.3027   -0.3850 O.2       7 UNK        -0.5193 
     49 N          30.0264   30.5199    1.0185 N.am      8 UNK        -0.4253 
     50 CA         31.4733   30.3055    1.0426 C.3       8 UNK         0.0242 
     51 CB         31.7839   28.8098    1.2068 C.3       8 UNK        -0.2000 
     52 C          32.1241   31.1435    2.1515 C.2       8 UNK         0.4948 
     53 O          33.0950   31.8490    1.8786 O.2       8 UNK        -0.5275 
     54 N          31.5638   31.0665    3.3693 N.am      9 UNK        -0.4246 
     55 CA         31.8119   31.8772    4.5740 C.3       9 UNK         0.0261 
     56 CB         31.3662   33.3319    4.3314 C.3       9 UNK        -0.1959 
     57 C          33.2322   31.8528    5.1794 C.2       9 UNK         0.5033 
     58 O          33.3580   32.0283    6.3914 O.2       9 UNK        -0.5390 
     59 N          34.2694   31.6709    4.3548 N.am      10 UNK        -0.4215 
     60 CA         35.6873   31.7797    4.7158 C.3       10 UNK         0.0240 
     61 CB         36.5229   31.7956    3.4249 C.3       10 UNK        -0.1982 
     62 C          36.2110   30.6932    5.6735 C.2       10 UNK         0.4970 
     63 O          37.2385   30.9152    6.3161 O.2       10 UNK        -0.4916 
     64 N          35.5324   29.5416    5.7310 N.am      11 UNK        -0.4279 
     65 CA         35.8886   28.3935    6.5782 C.3       11 UNK         0.1003 
     66 C          35.7696   28.7071    8.0949 C.2       11 UNK         0.5709 
     67 N          36.7047   28.2287    8.9045 N.am      11 UNK        -0.7358 
     68 O          34.8152   29.3368    8.5466 O.2       11 UNK        -0.4999 
     69 C69        35.0517   27.1409    6.2162 C.3       12 UNK        -0.0954 
     70 S70        35.2990   26.6152    4.4865 S.3       12 UNK        -0.2268 
     71 C71        33.7300   27.1094    3.7102 C.3       12 UNK         0.0203 
     72 H72        27.6225   18.8110   -4.1984 H         1 UNK         0.0888 
     73 H73        29.3460   18.5051   -3.9657 H         1 UNK         0.0888 
     74 H74        28.2236   18.3011   -2.6192 H         1 UNK         0.0888 
     75 H75        28.2861   20.0089   -1.1692 H         1 UNK         0.3017 
     76 H76        29.5032   22.5532   -1.8564 H         1 UNK         0.0873 
     77 H77        28.2266   21.7431    0.8045 H         1 UNK         0.0745 
     78 H78        29.8482   21.3233    0.3385 H         1 UNK         0.0745 
     79 H79        31.2364   22.2165    1.8860 H         1 UNK         0.0705 
     80 H80        32.0452   23.3289    0.8042 H         1 UNK         0.0705 
     81 H81        33.0528   25.3082    1.7792 H         1 UNK         0.1334 
     82 H82        32.0468   26.4921    5.7819 H         1 UNK         0.1417 
     83 H83        30.0348   23.1823    3.9573 H         1 UNK         0.1562 
     84 H84        30.4083   25.3081    7.0473 H         1 UNK         0.0748 
     85 H85        30.2395   23.6193    6.6329 H         1 UNK         0.0748 
     86 H86        29.0261   27.1727    6.1728 H         1 UNK         0.0940 
     87 H87        27.3136   27.0367    5.9081 H         1 UNK         0.0940 
     88 H88        29.5076   26.8129    3.7811 H         1 UNK         0.0703 
     89 H89        28.1559   25.8960    2.3435 H         1 UNK         0.3081 
     90 H90        25.8376   24.5250    1.9502 H         1 UNK         0.0719 
     91 H91        24.0015   26.9408    1.5059 H         1 UNK         0.0809 
     92 H92        23.7933   25.3522    0.7696 H         1 UNK         0.0809 
     93 H93        23.6435   25.5411    2.5090 H         1 UNK         0.0809 
     94 H94        26.6625   25.1175   -0.0184 H         1 UNK         0.2990 
     95 H95        26.9427   28.0428   -1.8669 H         1 UNK         0.0690 
     96 H96        29.3918   27.6730   -2.0778 H         1 UNK         0.0788 
     97 H97        29.4031   26.7036   -0.6031 H         1 UNK         0.0788 
     98 H98        29.0401   28.4196   -0.5311 H         1 UNK         0.0788 
     99 H99        28.0805   25.4339   -2.2133 H         1 UNK         0.2993 
    100 H100       25.2223   23.6882   -3.1280 H         1 UNK         0.0949 
    101 H101       25.4659   24.9465   -5.2795 H         1 UNK         0.0767 
    102 H102       27.2164   24.8109   -5.1751 H         1 UNK         0.0767 
    103 H103       26.2247   23.3665   -5.3815 H         1 UNK         0.0767 
    104 H104       27.9223   22.9968   -3.5659 H         1 UNK         0.3013 
    105 H105       26.3857   28.4738    4.0040 H         1 UNK         0.3121 
    106 H106       27.2364   30.9320    4.9478 H         1 UNK         0.0774 
    107 H107       24.7953   30.2836    3.2115 H         1 UNK         0.0815 
    108 H108       24.9906   31.7445    4.1721 H         1 UNK         0.0815 
    109 H109       24.8821   30.1841    4.9700 H         1 UNK         0.0815 
    110 H110       26.9877   29.9844    1.4794 H         1 UNK         0.2987 
    111 H111       27.6783   32.7043    0.6022 H         1 UNK         0.0949 
    112 H112       27.4201   30.1349   -1.0268 H         1 UNK         0.0806 
    113 H113       26.1015   31.2572   -0.7032 H         1 UNK         0.0806 
    114 H114       27.4881   31.7711   -1.6522 H         1 UNK         0.0806 
    115 H115       29.4684   29.9634    1.6532 H         1 UNK         0.3010 
    116 H116       31.8990   30.6250    0.0885 H         1 UNK         0.0829 
    117 H117       31.3308   28.2194    0.4115 H         1 UNK         0.0813 
    118 H118       32.8588   28.6412    1.1504 H         1 UNK         0.0813 
    119 H119       31.4320   28.4128    2.1593 H         1 UNK         0.0813 
    120 H120       30.7947   30.4049    3.4758 H         1 UNK         0.3038 
    121 H121       31.1535   31.4577    5.3366 H         1 UNK         0.0769 
    122 H122       31.9689   33.8174    3.5631 H         1 UNK         0.0811 
    123 H123       31.4568   33.9273    5.2409 H         1 UNK         0.0811 
    124 H124       30.3233   33.3786    4.0175 H         1 UNK         0.0811 
    125 H125       34.0467   31.6190    3.3610 H         1 UNK         0.3204 
    126 H126       35.8227   32.7389    5.2198 H         1 UNK         0.0748 
    127 H127       37.5849   31.9141    3.6450 H         1 UNK         0.0771 
    128 H128       36.4073   30.8697    2.8597 H         1 UNK         0.0771 
    129 H129       36.2345   32.6226    2.7755 H         1 UNK         0.0771 
    130 H130       34.6901   29.4545    5.1863 H         1 UNK         0.2980 
    131 H131       36.9356   28.1636    6.3697 H         1 UNK         0.0545 
    132 H132       36.6340   28.4081    9.8940 H         1 UNK         0.3459 
    133 H133       37.4844   27.6993    8.5463 H         1 UNK         0.3459 
    134 H134       35.3332   26.2991    6.8516 H         1 UNK         0.0616 
    135 H135       33.9957   27.3258    6.4100 H         1 UNK         0.0616 
    136 H136       33.3479   28.0271    4.1595 H         1 UNK         0.0634 
    137 H137       33.9450   27.3468    2.6689 H         1 UNK         0.0634 
@<TRIPOS>BOND
     1    1    2 1    
     2    1   72 1    
     3    1   73 1    
     4    1   74 1    
     5    2    3 2    
     6    2    4 am   BACKBONE|DICT|INTERRES
     7    4    5 1    
     8    4   75 1    
     9    5    6 1    
    10    5   35 1    
    11    5   76 1    
    12    6    7 1    
    13    6   77 1    
    14    6   78 1    
    15    7    8 1    
    16    8    9 1    
    17    8   79 1    
    18    8   80 1    
    19    9   10 ar   
    20    9   14 ar   
    21   10   11 ar   
    22   10   81 1    
    23   11   12 ar   
    24   11   71 1    
    25   12   13 ar   
    26   12   82 1    
    27   13   14 ar   
    28   13   15 1    
    29   14   83 1    
    30   15   16 1    
    31   15   84 1    
    32   15   85 1    
    33   16   17 1    
    34   17   18 1    
    35   17   86 1    
    36   17   87 1    
    37   18   19 1    
    38   18   37 1    
    39   18   88 1    
    40   19   20 am   BACKBONE|DICT|INTERRES
    41   19   89 1    
    42   20   21 2    
    43   20   22 1    
    44   22   23 1    
    45   22   24 1    
    46   22   90 1    
    47   23   91 1    
    48   23   92 1    
    49   23   93 1    
    50   24   25 am   BACKBONE|DICT|INTERRES
    51   24   94 1    
    52   25   26 2    
    53   25   27 1    
    54   27   28 1    
    55   27   29 1    
    56   27   95 1    
    57   28   96 1    
    58   28   97 1    
    59   28   98 1    
    60   29   30 am   BACKBONE|DICT|INTERRES
    61   29   99 1    
    62   30   31 2    
    63   30   32 1    
    64   32   33 1    
    65   32   34 1    
    66   32  100 1    
    67   33  101 1    
    68   33  102 1    
    69   33  103 1    
    70   34   35 am   BACKBONE|DICT|INTERRES
    71   34  104 1    
    72   35   36 2    
    73   37   38 2    
    74   37   39 am   BACKBONE|DICT|INTERRES
    75   39   40 1    
    76   39  105 1    
    77   40   41 1    
    78   40   42 1    
    79   40  106 1    
    80   41  107 1    
    81   41  108 1    
    82   41  109 1    
    83   42   43 2    
    84   42   44 am   BACKBONE|DICT|INTERRES
    85   44   45 1    
    86   44  110 1    
    87   45   46 1    
    88   45   47 1    
    89   45  111 1    
    90   46  112 1    
    91   46  113 1    
    92   46  114 1    
    93   47   48 2    
    94   47   49 am   BACKBONE|DICT|INTERRES
    95   49   50 1    
    96   49  115 1    
    97   50   51 1    
    98   50   52 1    
    99   50  116 1    
   100   51  117 1    
   101   51  118 1    
   102   51  119 1    
   103   52   53 2    
   104   52   54 am   BACKBONE|DICT|INTERRES
   105   54   55 1    
   106   54  120 1    
   107   55   56 1    
   108   55   57 1    
   109   55  121 1    
   110   56  122 1    
   111   56  123 1    
   112   56  124 1    
   113   57   58 2    
   114   57   59 am   BACKBONE|DICT|INTERRES
   115   59   60 1    
   116   59  125 1    
   117   60   61 1    
   118   60   62 1    
   119   60  126 1    
   120   61  127 1    
   121   61  128 1    
   122   61  129 1    
   123   62   63 2    
   124   62   64 am   BACKBONE|DICT|INTERRES
   125   64   65 1    
   126   64  130 1    
   127   65   66 1    
   128   65   69 1    
   129   65  131 1    
   130   66   67 am   BACKBONE|DICT|INTERRES
   131   66   68 2    
   132   67  132 1    
   133   67  133 1    
   134   69   70 1    
   135   69  134 1    
   136   69  135 1    
   137   70   71 1    
   138   71  136 1    
   139   71  137 1    
@<TRIPOS>SUBSTRUCTURE
     1 UNK         1 GROUP             0       ****    0 ROOT    
