@<TRIPOS>MOLECULE
3R136
137   139    1
SMALL
USER_CHARGES


@<TRIPOS>ATOM
      1 CA         32.3485   26.4055   -2.3733 C.3       0 UNK        -0.1979 
      2 C          30.9712   26.0174   -1.8588 C.2       0 UNK         0.4864 
      3 O          30.0006   26.7355   -2.1043 O.2       0 UNK        -0.5359 
      4 N          30.8706   24.8840   -1.1504 N.am      1 UNK        -0.4318 
      5 CA         29.6452   24.3464   -0.5416 C.3       1 UNK         0.0824 
      6 C6         29.9949   23.3913    0.6328 C.3       12 UNK        -0.0944 
      7 S7         28.6431   23.2154    1.8478 S.3       12 UNK        -0.2672 
      8 C8         29.5590   22.8147    3.3722 C.3       12 UNK         0.0333 
      9 C9         30.0755   24.0745    4.0486 C.ar      12 UNK        -0.0807 
     10 C10        31.3902   24.5040    3.8472 C.ar      12 UNK        -0.0894 
     11 C11        31.8415   25.6963    4.4198 C.ar      12 UNK        -0.0804 
     12 C12        30.9612   26.4684    5.1845 C.ar      12 UNK        -0.0824 
     13 C13        29.6509   26.0366    5.4102 C.ar      12 UNK        -0.0762 
     14 C14        29.2238   24.8242    4.8638 C.ar      12 UNK        -0.0782 
     15 C15        28.6979   26.8923    6.2303 C.3       12 UNK         0.0230 
     16 S16        28.0000   28.2412    5.2258 S.3       12 UNK        -0.2608 
     17 C17        26.5291   27.4637    4.4660 C.3       12 UNK        -0.0989 
     18 CA         26.7573   26.6491    3.1614 C.3       5 UNK         0.0716 
     19 N          25.4965   26.2283    2.5673 N.am      5 UNK        -0.4135 
     20 C          24.7518   25.1875    2.9524 C.2       4 UNK         0.5031 
     21 O          24.9949   24.5045    3.9483 O.2       4 UNK        -0.5229 
     22 CA         23.5270   24.8391    2.0806 C.3       4 UNK         0.0329 
     23 CB         22.2396   25.3751    2.7282 C.3       4 UNK        -0.2001 
     24 N          23.6095   25.3288    0.6972 N.am      4 UNK        -0.4303 
     25 C          24.5227   24.9341   -0.2018 C.2       3 UNK         0.5044 
     26 O          25.3777   24.0794    0.0383 O.2       3 UNK        -0.5152 
     27 CA         24.4806   25.6210   -1.5816 C.3       3 UNK         0.0319 
     28 CB         24.2993   27.1481   -1.4719 C.3       3 UNK        -0.2001 
     29 N          25.7221   25.3573   -2.3077 N.am      3 UNK        -0.4354 
     30 C          25.9238   24.3556   -3.1739 C.2       2 UNK         0.4964 
     31 O          25.0374   23.6042   -3.5825 O.2       2 UNK        -0.5047 
     32 CA         27.3699   24.1560   -3.6584 C.3       2 UNK         0.0288 
     33 CB         27.6428   24.9974   -4.9159 C.3       2 UNK        -0.2113 
     34 N          28.3423   24.5084   -2.6208 N.am      2 UNK        -0.4145 
     35 C          28.7022   23.7177   -1.6006 C.2       1 UNK         0.5006 
     36 O          28.3427   22.5425   -1.5028 O.2       1 UNK        -0.5103 
     37 C          27.5366   27.3835    2.0580 C.2       5 UNK         0.5055 
     38 O          26.9167   27.9310    1.1404 O.2       5 UNK        -0.5220 
     39 N          28.8729   27.3605    2.1446 N.am      6 UNK        -0.4450 
     40 CA         29.7683   28.0581    1.2244 C.3       6 UNK         0.0367 
     41 CB         31.2095   27.5686    1.4390 C.3       6 UNK        -0.1929 
     42 C          29.6733   29.5765    1.4291 C.2       6 UNK         0.5070 
     43 O          29.9683   30.0572    2.5245 O.2       6 UNK        -0.5237 
     44 N          29.2916   30.3036    0.3707 N.am      7 UNK        -0.4739 
     45 CA         29.0367   31.7514    0.3807 C.3       7 UNK         0.0276 
     46 CB         28.4971   32.1754   -0.9949 C.3       7 UNK        -0.1927 
     47 C          30.2434   32.6232    0.7770 C.2       7 UNK         0.5013 
     48 O          30.0475   33.7410    1.2552 O.2       7 UNK        -0.5193 
     49 N          31.4607   32.0956    0.5898 N.am      8 UNK        -0.4253 
     50 CA         32.7153   32.7119    1.0245 C.3       8 UNK         0.0242 
     51 CB         33.8871   32.0104    0.3164 C.3       8 UNK        -0.2000 
     52 C          32.9224   32.6830    2.5516 C.2       8 UNK         0.4948 
     53 O          33.7204   33.4769    3.0504 O.2       8 UNK        -0.5275 
     54 N          32.2399   31.7627    3.2571 N.am      9 UNK        -0.4246 
     55 CA         32.3090   31.5151    4.7060 C.3       9 UNK         0.0261 
     56 CB         31.6979   32.6965    5.4881 C.3       9 UNK        -0.1959 
     57 C          33.7153   31.1321    5.2181 C.2       9 UNK         0.5033 
     58 O          34.0179   31.3412    6.3949 O.2       9 UNK        -0.5390 
     59 N          34.5459   30.5557    4.3354 N.am      10 UNK        -0.4215 
     60 CA         35.9572   30.2207    4.5684 C.3       10 UNK         0.0240 
     61 CB         36.5708   29.7141    3.2526 C.3       10 UNK        -0.1982 
     62 C          36.2055   29.2070    5.7007 C.2       10 UNK         0.4970 
     63 O          37.2985   29.1929    6.2681 O.2       10 UNK        -0.4916 
     64 N          35.1919   28.3911    6.0076 N.am      11 UNK        -0.4279 
     65 CA         35.1807   27.4317    7.1195 C.3       11 UNK         0.1003 
     66 C          34.9743   28.0875    8.5175 C.2       11 UNK         0.5709 
     67 N          34.6343   29.3687    8.6183 N.am      11 UNK        -0.7358 
     68 O          35.1357   27.4184    9.5353 O.2       11 UNK        -0.4999 
     69 C69        34.1504   26.2970    6.8768 C.3       12 UNK        -0.0954 
     70 S70        34.4502   25.3821    5.3242 S.3       12 UNK        -0.2268 
     71 C71        33.2693   26.1614    4.1767 C.3       12 UNK         0.0203 
     72 H72        33.1138   25.6911   -2.0704 H         1 UNK         0.0888 
     73 H73        32.3412   26.4553   -3.4617 H         1 UNK         0.0888 
     74 H74        32.6284   27.3858   -1.9888 H         1 UNK         0.0888 
     75 H75        31.6970   24.3171   -1.0228 H         1 UNK         0.3017 
     76 H76        29.1030   25.1948   -0.1172 H         1 UNK         0.0873 
     77 H77        30.2917   22.4038    0.2744 H         1 UNK         0.0745 
     78 H78        30.8612   23.7825    1.1657 H         1 UNK         0.0745 
     79 H79        28.8928   22.2821    4.0526 H         1 UNK         0.0705 
     80 H80        30.3764   22.1281    3.1464 H         1 UNK         0.0705 
     81 H81        32.0622   23.9171    3.2361 H         1 UNK         0.1334 
     82 H82        31.2904   27.4094    5.6034 H         1 UNK         0.1417 
     83 H83        28.2126   24.4805    5.0383 H         1 UNK         0.1562 
     84 H84        29.2377   27.3270    7.0729 H         1 UNK         0.0748 
     85 H85        27.8987   26.2881    6.6624 H         1 UNK         0.0748 
     86 H86        25.8188   28.2683    4.2667 H         1 UNK         0.0940 
     87 H87        26.0458   26.8326    5.2133 H         1 UNK         0.0940 
     88 H88        27.3142   25.7435    3.3865 H         1 UNK         0.0703 
     89 H89        25.2617   26.7297    1.7199 H         1 UNK         0.3081 
     90 H90        23.4615   23.7497    2.0416 H         1 UNK         0.0719 
     91 H91        22.2343   26.4648    2.7760 H         1 UNK         0.0809 
     92 H92        21.3544   25.0570    2.1770 H         1 UNK         0.0809 
     93 H93        22.1326   25.0043    3.7487 H         1 UNK         0.0809 
     94 H94        22.9332   26.0276    0.4248 H         1 UNK         0.2990 
     95 H95        23.6325   25.2092   -2.1325 H         1 UNK         0.0690 
     96 H96        23.3299   27.4108   -1.0476 H         1 UNK         0.0788 
     97 H97        24.3483   27.6200   -2.4536 H         1 UNK         0.0788 
     98 H98        25.0687   27.6048   -0.8482 H         1 UNK         0.0788 
     99 H99        26.5270   25.8872   -2.0089 H         1 UNK         0.2993 
    100 H100       27.4924   23.1018   -3.9174 H         1 UNK         0.0949 
    101 H101       28.6470   24.8184   -5.3010 H         1 UNK         0.0767 
    102 H102       26.9409   24.7467   -5.7126 H         1 UNK         0.0767 
    103 H103       27.5453   26.0657   -4.7179 H         1 UNK         0.0767 
    104 H104       28.7440   25.4433   -2.6461 H         1 UNK         0.3013 
    105 H105       29.2988   26.9401    2.9597 H         1 UNK         0.3121 
    106 H106       29.4645   27.8122    0.2062 H         1 UNK         0.0774 
    107 H107       31.8830   28.0051    0.7008 H         1 UNK         0.0815 
    108 H108       31.5840   27.8457    2.4244 H         1 UNK         0.0815 
    109 H109       31.2817   26.4851    1.3457 H         1 UNK         0.0815 
    110 H110       29.0722   29.8182   -0.4883 H         1 UNK         0.2987 
    111 H111       28.2584   31.9360    1.1245 H         1 UNK         0.0949 
    112 H112       29.2195   31.9825   -1.7890 H         1 UNK         0.0806 
    113 H113       27.5760   31.6467   -1.2411 H         1 UNK         0.0806 
    114 H114       28.2693   33.2423   -1.0140 H         1 UNK         0.0806 
    115 H115       31.5176   31.1780    0.1730 H         1 UNK         0.3010 
    116 H116       32.7058   33.7599    0.7168 H         1 UNK         0.0829 
    117 H117       33.8034   32.0948   -0.7673 H         1 UNK         0.0813 
    118 H118       34.8403   32.4593    0.6002 H         1 UNK         0.0813 
    119 H119       33.9388   30.9505    0.5682 H         1 UNK         0.0813 
    120 H120       31.5630   31.1832    2.7665 H         1 UNK         0.3038 
    121 H121       31.6787   30.6431    4.8881 H         1 UNK         0.0769 
    122 H122       32.3085   33.5960    5.4035 H         1 UNK         0.0811 
    123 H123       31.6098   32.4618    6.5496 H         1 UNK         0.0811 
    124 H124       30.6974   32.9342    5.1268 H         1 UNK         0.0811 
    125 H125       34.2029   30.4220    3.3960 H         1 UNK         0.3204 
    126 H126       36.4661   31.1447    4.8505 H         1 UNK         0.0748 
    127 H127       37.6306   29.4863    3.3774 H         1 UNK         0.0771 
    128 H128       36.0815   28.8040    2.9027 H         1 UNK         0.0771 
    129 H129       36.4948   30.4629    2.4636 H         1 UNK         0.0771 
    130 H130       34.3295   28.4908    5.4982 H         1 UNK         0.2980 
    131 H131       36.1679   26.9671    7.1571 H         1 UNK         0.0545 
    132 H132       34.4985   29.9465    7.7959 H         1 UNK         0.3459 
    133 H133       34.5117   29.7705    9.5339 H         1 UNK         0.3459 
    134 H134       34.1959   25.5679    7.6877 H         1 UNK         0.0616 
    135 H135       33.1351   26.6918    6.8896 H         1 UNK         0.0616 
    136 H136       33.5627   25.9109    3.1562 H         1 UNK         0.0634 
    137 H137       33.3374   27.2468    4.2490 H         1 UNK         0.0634 
@<TRIPOS>BOND
     1    1    2 1    
     2    1   72 1    
     3    1   73 1    
     4    1   74 1    
     5    2    3 2    
     6    2    4 am   BACKBONE|DICT|INTERRES
     7    4    5 1    
     8    4   75 1    
     9    5    6 1    
    10    5   35 1    
    11    5   76 1    
    12    6    7 1    
    13    6   77 1    
    14    6   78 1    
    15    7    8 1    
    16    8    9 1    
    17    8   79 1    
    18    8   80 1    
    19    9   10 ar   
    20    9   14 ar   
    21   10   11 ar   
    22   10   81 1    
    23   11   12 ar   
    24   11   71 1    
    25   12   13 ar   
    26   12   82 1    
    27   13   14 ar   
    28   13   15 1    
    29   14   83 1    
    30   15   16 1    
    31   15   84 1    
    32   15   85 1    
    33   16   17 1    
    34   17   18 1    
    35   17   86 1    
    36   17   87 1    
    37   18   19 1    
    38   18   37 1    
    39   18   88 1    
    40   19   20 am   BACKBONE|DICT|INTERRES
    41   19   89 1    
    42   20   21 2    
    43   20   22 1    
    44   22   23 1    
    45   22   24 1    
    46   22   90 1    
    47   23   91 1    
    48   23   92 1    
    49   23   93 1    
    50   24   25 am   BACKBONE|DICT|INTERRES
    51   24   94 1    
    52   25   26 2    
    53   25   27 1    
    54   27   28 1    
    55   27   29 1    
    56   27   95 1    
    57   28   96 1    
    58   28   97 1    
    59   28   98 1    
    60   29   30 am   BACKBONE|DICT|INTERRES
    61   29   99 1    
    62   30   31 2    
    63   30   32 1    
    64   32   33 1    
    65   32   34 1    
    66   32  100 1    
    67   33  101 1    
    68   33  102 1    
    69   33  103 1    
    70   34   35 am   BACKBONE|DICT|INTERRES
    71   34  104 1    
    72   35   36 2    
    73   37   38 2    
    74   37   39 am   BACKBONE|DICT|INTERRES
    75   39   40 1    
    76   39  105 1    
    77   40   41 1    
    78   40   42 1    
    79   40  106 1    
    80   41  107 1    
    81   41  108 1    
    82   41  109 1    
    83   42   43 2    
    84   42   44 am   BACKBONE|DICT|INTERRES
    85   44   45 1    
    86   44  110 1    
    87   45   46 1    
    88   45   47 1    
    89   45  111 1    
    90   46  112 1    
    91   46  113 1    
    92   46  114 1    
    93   47   48 2    
    94   47   49 am   BACKBONE|DICT|INTERRES
    95   49   50 1    
    96   49  115 1    
    97   50   51 1    
    98   50   52 1    
    99   50  116 1    
   100   51  117 1    
   101   51  118 1    
   102   51  119 1    
   103   52   53 2    
   104   52   54 am   BACKBONE|DICT|INTERRES
   105   54   55 1    
   106   54  120 1    
   107   55   56 1    
   108   55   57 1    
   109   55  121 1    
   110   56  122 1    
   111   56  123 1    
   112   56  124 1    
   113   57   58 2    
   114   57   59 am   BACKBONE|DICT|INTERRES
   115   59   60 1    
   116   59  125 1    
   117   60   61 1    
   118   60   62 1    
   119   60  126 1    
   120   61  127 1    
   121   61  128 1    
   122   61  129 1    
   123   62   63 2    
   124   62   64 am   BACKBONE|DICT|INTERRES
   125   64   65 1    
   126   64  130 1    
   127   65   66 1    
   128   65   69 1    
   129   65  131 1    
   130   66   67 am   BACKBONE|DICT|INTERRES
   131   66   68 2    
   132   67  132 1    
   133   67  133 1    
   134   69   70 1    
   135   69  134 1    
   136   69  135 1    
   137   70   71 1    
   138   71  136 1    
   139   71  137 1    
@<TRIPOS>SUBSTRUCTURE
     1 UNK         1 GROUP             0       ****    0 ROOT    
