@<TRIPOS>MOLECULE
3R136
137   139    1
SMALL
USER_CHARGES


@<TRIPOS>ATOM
      1 CA         26.2232   21.9401    2.6020 C.3       0 UNK        -0.1979 
      2 C          26.7172   23.2664    2.0466 C.2       0 UNK         0.4864 
      3 O          26.5926   23.5038    0.8435 O.2       0 UNK        -0.5359 
      4 N          27.2620   24.1329    2.9160 N.am      1 UNK        -0.4318 
      5 CA         27.8390   25.4465    2.5945 C.3       1 UNK         0.0824 
      6 C6         28.2905   26.2128    3.8677 C.3       12 UNK        -0.0944 
      7 S7         29.5600   25.4099    4.9164 S.3       12 UNK        -0.2672 
      8 C8         30.6866   24.5126    3.7890 C.3       12 UNK         0.0333 
      9 C9         31.7992   25.3688    3.1818 C.ar      12 UNK        -0.0807 
     10 C10        33.1189   24.9077    3.2236 C.ar      12 UNK        -0.0894 
     11 C11        34.1523   25.6305    2.6197 C.ar      12 UNK        -0.0804 
     12 C12        33.8648   26.8346    1.9709 C.ar      12 UNK        -0.0824 
     13 C13        32.5523   27.3129    1.9221 C.ar      12 UNK        -0.0762 
     14 C14        31.5301   26.5804    2.5357 C.ar      12 UNK        -0.0782 
     15 C15        32.2356   28.6194    1.2041 C.3       12 UNK         0.0230 
     16 S16        32.0086   28.3859   -0.5911 S.3       12 UNK        -0.2608 
     17 C17        30.5065   27.3508   -0.6292 C.3       12 UNK        -0.0989 
     18 CA         29.4266   27.7625   -1.6711 C.3       5 UNK         0.0716 
     19 N          28.5311   26.6303   -1.8983 N.am      5 UNK        -0.4135 
     20 C          28.7703   25.6160   -2.7332 C.2       4 UNK         0.5031 
     21 O          29.6717   25.6257   -3.5734 O.2       4 UNK        -0.5229 
     22 CA         27.9204   24.3426   -2.5778 C.3       4 UNK         0.0329 
     23 CB         28.7364   23.2585   -1.8527 C.3       4 UNK        -0.2001 
     24 N          26.6633   24.5325   -1.8501 N.am      4 UNK        -0.4303 
     25 C          25.5211   24.9449   -2.4154 C.2       3 UNK         0.5044 
     26 O          25.4318   25.3240   -3.5838 O.2       3 UNK        -0.5152 
     27 CA         24.2595   24.8974   -1.5406 C.3       3 UNK         0.0319 
     28 CB         23.7748   23.4483   -1.3627 C.3       3 UNK        -0.2001 
     29 N          24.5010   25.4942   -0.2281 N.am      3 UNK        -0.4354 
     30 C          24.2276   26.7696    0.0808 C.2       2 UNK         0.4964 
     31 O          23.6718   27.5538   -0.6893 O.2       2 UNK        -0.5047 
     32 CA         24.6229   27.2720    1.4841 C.3       2 UNK         0.0288 
     33 CB         23.3850   27.3868    2.3888 C.3       2 UNK        -0.2113 
     34 N          25.6404   26.4678    2.1702 N.am      2 UNK        -0.4145 
     35 C          26.9019   26.3213    1.7415 C.2       1 UNK         0.5006 
     36 O          27.3157   26.7854    0.6831 O.2       1 UNK        -0.5103 
     37 C          28.5784   28.9822   -1.2458 C.2       5 UNK         0.5055 
     38 O          27.3898   29.0576   -1.5712 O.2       5 UNK        -0.5220 
     39 N          29.1972   29.9089   -0.5053 N.am      6 UNK        -0.4450 
     40 CA         28.5149   30.8874    0.3408 C.3       6 UNK         0.0367 
     41 CB         29.4976   32.0172    0.6882 C.3       6 UNK        -0.1929 
     42 C          28.0273   30.1935    1.6237 C.2       6 UNK         0.5070 
     43 O          28.6395   29.2146    2.0515 O.2       6 UNK        -0.5237 
     44 N          26.9649   30.7216    2.2431 N.am      7 UNK        -0.4739 
     45 CA         26.2972   30.1540    3.4242 C.3       7 UNK         0.0276 
     46 CB         24.8659   30.7187    3.5008 C.3       7 UNK        -0.1927 
     47 C          27.0725   30.3121    4.7530 C.2       7 UNK         0.5013 
     48 O          26.4757   30.6578    5.7743 O.2       7 UNK        -0.5193 
     49 N          28.3783   30.0363    4.7275 N.am      8 UNK        -0.4253 
     50 CA         29.2927   30.0040    5.8631 C.3       8 UNK         0.0242 
     51 CB         29.6418   31.4333    6.3197 C.3       8 UNK        -0.2000 
     52 C          30.5542   29.2610    5.4179 C.2       8 UNK         0.4948 
     53 O          30.9312   29.3617    4.2480 O.2       8 UNK        -0.5275 
     54 N          31.2202   28.5714    6.3525 N.am      9 UNK        -0.4246 
     55 CA         32.4729   27.8424    6.1215 C.3       9 UNK         0.0261 
     56 CB         32.6631   26.7941    7.2324 C.3       9 UNK        -0.1959 
     57 C          33.6753   28.7979    5.9912 C.2       9 UNK         0.5033 
     58 O          34.5899   28.7695    6.8179 O.2       9 UNK        -0.5390 
     59 N          33.6373   29.6469    4.9561 N.am      10 UNK        -0.4215 
     60 CA         34.5859   30.7319    4.6837 C.3       10 UNK         0.0240 
     61 CB         34.0739   31.5621    3.4955 C.3       10 UNK        -0.1982 
     62 C          36.0388   30.2819    4.4463 C.2       10 UNK         0.4970 
     63 O          36.9427   31.1113    4.5583 O.2       10 UNK        -0.4916 
     64 N          36.2452   28.9938    4.1434 N.am      11 UNK        -0.4279 
     65 CA         37.5666   28.3564    4.0924 C.3       11 UNK         0.1003 
     66 C          38.2650   28.1913    5.4771 C.2       11 UNK         0.5709 
     67 N          37.5704   28.3406    6.6008 N.am      11 UNK        -0.7358 
     68 O          39.4661   27.9365    5.5291 O.2       11 UNK        -0.4999 
     69 C69        37.5274   27.0317    3.2878 C.3       12 UNK        -0.0954 
     70 S70        36.5142   25.7179    4.0573 S.3       12 UNK        -0.2268 
     71 C71        35.5692   25.0799    2.6411 C.3       12 UNK         0.0203 
     72 H72        26.7459   21.1157    2.1180 H         1 UNK         0.0888 
     73 H73        25.1568   21.8278    2.4085 H         1 UNK         0.0888 
     74 H74        26.3847   21.8611    3.6768 H         1 UNK         0.0888 
     75 H75        27.3304   23.8669    3.8884 H         1 UNK         0.3017 
     76 H76        28.7091   25.2700    1.9619 H         1 UNK         0.0873 
     77 H77        28.6671   27.2022    3.6121 H         1 UNK         0.0745 
     78 H78        27.4279   26.4017    4.5095 H         1 UNK         0.0745 
     79 H79        31.1351   23.7161    4.3845 H         1 UNK         0.0705 
     80 H80        30.1422   23.9956    3.0011 H         1 UNK         0.0705 
     81 H81        33.3446   23.9695    3.7122 H         1 UNK         0.1334 
     82 H82        34.6582   27.3915    1.4913 H         1 UNK         0.1417 
     83 H83        30.5231   26.9629    2.5022 H         1 UNK         0.1562 
     84 H84        33.0495   29.3265    1.3606 H         1 UNK         0.0748 
     85 H85        31.3448   29.0840    1.6290 H         1 UNK         0.0748 
     86 H86        30.0466   27.3063    0.3575 H         1 UNK         0.0940 
     87 H87        30.8553   26.3358   -0.8278 H         1 UNK         0.0940 
     88 H88        29.9113   28.0283   -2.6126 H         1 UNK         0.0703 
     89 H89        27.7633   26.5725   -1.2344 H         1 UNK         0.3081 
     90 H90        27.6950   23.9779   -3.5824 H         1 UNK         0.0719 
     91 H91        28.9931   23.5614   -0.8365 H         1 UNK         0.0809 
     92 H92        28.1838   22.3207   -1.7914 H         1 UNK         0.0809 
     93 H93        29.6696   23.0505   -2.3780 H         1 UNK         0.0809 
     94 H94        26.6490   24.2233   -0.8797 H         1 UNK         0.2990 
     95 H95        23.4712   25.4453   -2.0615 H         1 UNK         0.0690 
     96 H96        22.8442   23.4107   -0.7964 H         1 UNK         0.0788 
     97 H97        24.5080   22.8322   -0.8406 H         1 UNK         0.0788 
     98 H98        23.5847   22.9799   -2.3294 H         1 UNK         0.0788 
     99 H99        25.0060   24.9256    0.4406 H         1 UNK         0.2993 
    100 H100       25.0377   28.2720    1.3411 H         1 UNK         0.0949 
    101 H101       22.6242   28.0212    1.9316 H         1 UNK         0.0767 
    102 H102       22.9296   26.4129    2.5731 H         1 UNK         0.0767 
    103 H103       23.6351   27.8297    3.3529 H         1 UNK         0.0767 
    104 H104       25.3605   26.0055    3.0232 H         1 UNK         0.3013 
    105 H105       30.1672   29.7309   -0.2804 H         1 UNK         0.3121 
    106 H106       27.6592   31.3014   -0.1968 H         1 UNK         0.0774 
    107 H107       30.3544   31.6478    1.2541 H         1 UNK         0.0815 
    108 H108       29.0138   32.7835    1.2952 H         1 UNK         0.0815 
    109 H109       29.8741   32.5062   -0.2104 H         1 UNK         0.0815 
    110 H110       26.5535   31.5616    1.8614 H         1 UNK         0.2987 
    111 H111       26.2126   29.0774    3.2701 H         1 UNK         0.0949 
    112 H112       24.8677   31.7952    3.6757 H         1 UNK         0.0806 
    113 H113       24.3118   30.5276    2.5816 H         1 UNK         0.0806 
    114 H114       24.3028   30.2569    4.3130 H         1 UNK         0.0806 
    115 H115       28.7907   29.7326    3.8443 H         1 UNK         0.3010 
    116 H116       28.8222   29.4540    6.6807 H         1 UNK         0.0829 
    117 H117       28.7588   31.9716    6.6639 H         1 UNK         0.0813 
    118 H118       30.3523   31.4182    7.1471 H         1 UNK         0.0813 
    119 H119       30.0926   32.0119    5.5122 H         1 UNK         0.0813 
    120 H120       30.8705   28.5704    7.2999 H         1 UNK         0.3038 
    121 H121       32.3905   27.3032    5.1767 H         1 UNK         0.0769 
    122 H122       32.7402   27.2557    8.2175 H         1 UNK         0.0811 
    123 H123       33.5740   26.2165    7.0688 H         1 UNK         0.0811 
    124 H124       31.8338   26.0867    7.2535 H         1 UNK         0.0811 
    125 H125       32.7984   29.6101    4.3795 H         1 UNK         0.3204 
    126 H126       34.5943   31.3739    5.5668 H         1 UNK         0.0748 
    127 H127       34.6956   32.4452    3.3416 H         1 UNK         0.0771 
    128 H128       34.0905   30.9908    2.5681 H         1 UNK         0.0771 
    129 H129       33.0537   31.9102    3.6602 H         1 UNK         0.0771 
    130 H130       35.4519   28.3727    4.0945 H         1 UNK         0.2980 
    131 H131       38.2125   29.0332    3.5298 H         1 UNK         0.0545 
    132 H132       38.0400   28.2356    7.4856 H         1 UNK         0.3459 
    133 H133       36.5733   28.5291    6.5795 H         1 UNK         0.3459 
    134 H134       37.1574   27.2390    2.2830 H         1 UNK         0.0616 
    135 H135       38.5379   26.6424    3.1516 H         1 UNK         0.0616 
    136 H136       36.0799   25.2991    1.7025 H         1 UNK         0.0634 
    137 H137       35.5404   23.9915    2.7127 H         1 UNK         0.0634 
@<TRIPOS>BOND
     1    1    2 1    
     2    1   72 1    
     3    1   73 1    
     4    1   74 1    
     5    2    3 2    
     6    2    4 am   BACKBONE|DICT|INTERRES
     7    4    5 1    
     8    4   75 1    
     9    5    6 1    
    10    5   35 1    
    11    5   76 1    
    12    6    7 1    
    13    6   77 1    
    14    6   78 1    
    15    7    8 1    
    16    8    9 1    
    17    8   79 1    
    18    8   80 1    
    19    9   10 ar   
    20    9   14 ar   
    21   10   11 ar   
    22   10   81 1    
    23   11   12 ar   
    24   11   71 1    
    25   12   13 ar   
    26   12   82 1    
    27   13   14 ar   
    28   13   15 1    
    29   14   83 1    
    30   15   16 1    
    31   15   84 1    
    32   15   85 1    
    33   16   17 1    
    34   17   18 1    
    35   17   86 1    
    36   17   87 1    
    37   18   19 1    
    38   18   37 1    
    39   18   88 1    
    40   19   20 am   BACKBONE|DICT|INTERRES
    41   19   89 1    
    42   20   21 2    
    43   20   22 1    
    44   22   23 1    
    45   22   24 1    
    46   22   90 1    
    47   23   91 1    
    48   23   92 1    
    49   23   93 1    
    50   24   25 am   BACKBONE|DICT|INTERRES
    51   24   94 1    
    52   25   26 2    
    53   25   27 1    
    54   27   28 1    
    55   27   29 1    
    56   27   95 1    
    57   28   96 1    
    58   28   97 1    
    59   28   98 1    
    60   29   30 am   BACKBONE|DICT|INTERRES
    61   29   99 1    
    62   30   31 2    
    63   30   32 1    
    64   32   33 1    
    65   32   34 1    
    66   32  100 1    
    67   33  101 1    
    68   33  102 1    
    69   33  103 1    
    70   34   35 am   BACKBONE|DICT|INTERRES
    71   34  104 1    
    72   35   36 2    
    73   37   38 2    
    74   37   39 am   BACKBONE|DICT|INTERRES
    75   39   40 1    
    76   39  105 1    
    77   40   41 1    
    78   40   42 1    
    79   40  106 1    
    80   41  107 1    
    81   41  108 1    
    82   41  109 1    
    83   42   43 2    
    84   42   44 am   BACKBONE|DICT|INTERRES
    85   44   45 1    
    86   44  110 1    
    87   45   46 1    
    88   45   47 1    
    89   45  111 1    
    90   46  112 1    
    91   46  113 1    
    92   46  114 1    
    93   47   48 2    
    94   47   49 am   BACKBONE|DICT|INTERRES
    95   49   50 1    
    96   49  115 1    
    97   50   51 1    
    98   50   52 1    
    99   50  116 1    
   100   51  117 1    
   101   51  118 1    
   102   51  119 1    
   103   52   53 2    
   104   52   54 am   BACKBONE|DICT|INTERRES
   105   54   55 1    
   106   54  120 1    
   107   55   56 1    
   108   55   57 1    
   109   55  121 1    
   110   56  122 1    
   111   56  123 1    
   112   56  124 1    
   113   57   58 2    
   114   57   59 am   BACKBONE|DICT|INTERRES
   115   59   60 1    
   116   59  125 1    
   117   60   61 1    
   118   60   62 1    
   119   60  126 1    
   120   61  127 1    
   121   61  128 1    
   122   61  129 1    
   123   62   63 2    
   124   62   64 am   BACKBONE|DICT|INTERRES
   125   64   65 1    
   126   64  130 1    
   127   65   66 1    
   128   65   69 1    
   129   65  131 1    
   130   66   67 am   BACKBONE|DICT|INTERRES
   131   66   68 2    
   132   67  132 1    
   133   67  133 1    
   134   69   70 1    
   135   69  134 1    
   136   69  135 1    
   137   70   71 1    
   138   71  136 1    
   139   71  137 1    
@<TRIPOS>SUBSTRUCTURE
     1 UNK         1 GROUP             0       ****    0 ROOT    
