@<TRIPOS>MOLECULE
3R136
137   139    1
SMALL
USER_CHARGES


@<TRIPOS>ATOM
      1 CA         33.5592   27.1894   -2.6808 C.3       0 UNK        -0.1979 
      2 C          32.2925   27.5952   -1.9425 C.2       0 UNK         0.4864 
      3 O          31.8150   28.7156   -2.1162 O.2       0 UNK        -0.5359 
      4 N          31.7416   26.6908   -1.1216 N.am      1 UNK        -0.4318 
      5 CA         30.5366   26.9130   -0.3130 C.3       1 UNK         0.0824 
      6 C6         30.4576   25.9204    0.8726 C.3       12 UNK        -0.0944 
      7 S7         30.4010   24.1625    0.3807 S.3       12 UNK        -0.2672 
      8 C8         31.3935   23.3969    1.7021 C.3       12 UNK         0.0333 
      9 C9         30.7911   23.6339    3.0810 C.ar      12 UNK        -0.0807 
     10 C10        31.4644   24.4192    4.0227 C.ar      12 UNK        -0.0894 
     11 C11        30.9193   24.6293    5.2936 C.ar      12 UNK        -0.0804 
     12 C12        29.6847   24.0542    5.6150 C.ar      12 UNK        -0.0824 
     13 C13        29.0091   23.2550    4.6869 C.ar      12 UNK        -0.0762 
     14 C14        29.5686   23.0482    3.4226 C.ar      12 UNK        -0.0782 
     15 C15        27.6986   22.5750    5.0610 C.3       12 UNK         0.0230 
     16 S16        26.2811   23.2389    4.1316 S.3       12 UNK        -0.2608 
     17 C17        26.0923   24.8995    4.8661 C.3       12 UNK        -0.0989 
     18 CA         26.7020   26.0137    3.9736 C.3       5 UNK         0.0716 
     19 N          26.1373   26.0234    2.6180 N.am      5 UNK        -0.4135 
     20 C          24.9203   26.4319    2.2321 C.2       4 UNK         0.5031 
     21 O          24.0285   26.7954    2.9994 O.2       4 UNK        -0.5229 
     22 CA         24.6625   26.4716    0.7164 C.3       4 UNK         0.0329 
     23 CB         24.7854   27.9129    0.1930 C.3       4 UNK        -0.2001 
     24 N          25.5829   25.6184   -0.0390 N.am      4 UNK        -0.4303 
     25 C          25.4283   24.2971   -0.2145 C.2       3 UNK         0.5044 
     26 O          24.4893   23.6590    0.2635 O.2       3 UNK        -0.5152 
     27 CA         26.5011   23.5550   -1.0438 C.3       3 UNK         0.0319 
     28 CB         25.8931   22.4580   -1.9432 C.3       3 UNK        -0.2001 
     29 N          27.3831   24.4409   -1.8166 N.am      3 UNK        -0.4354 
     30 C          27.0426   25.2904   -2.8010 C.2       2 UNK         0.4964 
     31 O          25.9114   25.3616   -3.2825 O.2       2 UNK        -0.5047 
     32 CA         28.1435   26.2479   -3.3068 C.3       2 UNK         0.0288 
     33 CB         27.5727   27.6232   -3.7152 C.3       2 UNK        -0.2113 
     34 N          29.2642   26.4168   -2.3687 N.am      2 UNK        -0.4145 
     35 C          29.2224   26.9119   -1.1201 C.2       1 UNK         0.5006 
     36 O          28.1942   27.3138   -0.5684 O.2       1 UNK        -0.5103 
     37 C          26.6294   27.4151    4.6372 C.2       5 UNK         0.5055 
     38 O          25.9501   27.5682    5.6527 O.2       5 UNK        -0.5220 
     39 N          27.2784   28.4506    4.0849 N.am      6 UNK        -0.4450 
     40 CA         28.1740   28.4640    2.9316 C.3       6 UNK         0.0367 
     41 CB         29.6104   28.1840    3.3961 C.3       6 UNK        -0.1929 
     42 C          28.0931   29.8357    2.2636 C.2       6 UNK         0.5070 
     43 O          27.9176   30.8405    2.9572 O.2       6 UNK        -0.5237 
     44 N          28.2817   29.8637    0.9393 N.am      7 UNK        -0.4739 
     45 CA         28.3591   31.0713    0.1118 C.3       7 UNK         0.0276 
     46 CB         28.1080   30.6757   -1.3555 C.3       7 UNK        -0.1927 
     47 C          29.6905   31.8317    0.3028 C.2       7 UNK         0.5013 
     48 O          30.4534   31.9907   -0.6509 O.2       7 UNK        -0.5193 
     49 N          29.9388   32.2783    1.5424 N.am      8 UNK        -0.4253 
     50 CA         31.1079   33.0320    2.0142 C.3       8 UNK         0.0242 
     51 CB         31.1563   34.4326    1.3652 C.3       8 UNK        -0.2000 
     52 C          32.4392   32.2615    1.8861 C.2       8 UNK         0.4948 
     53 O          33.4698   32.8634    1.5751 O.2       8 UNK        -0.5275 
     54 N          32.4030   30.9475    2.1488 N.am      9 UNK        -0.4246 
     55 CA         33.5928   30.0975    2.2492 C.3       9 UNK         0.0261 
     56 CB         33.1948   28.6267    2.0440 C.3       9 UNK        -0.1959 
     57 C          34.2784   30.2743    3.6135 C.2       9 UNK         0.5033 
     58 O          33.6385   30.7029    4.5787 O.2       9 UNK        -0.5390 
     59 N          35.5585   29.8903    3.6866 N.am      10 UNK        -0.4215 
     60 CA         36.3890   29.9299    4.8945 C.3       10 UNK         0.0240 
     61 CB         37.8723   29.9547    4.4774 C.3       10 UNK        -0.1982 
     62 C          36.0649   28.7814    5.8742 C.2       10 UNK         0.4970 
     63 O          36.9496   27.9945    6.2175 O.2       10 UNK        -0.4916 
     64 N          34.7986   28.6994    6.2962 N.am      11 UNK        -0.4279 
     65 CA         34.2985   27.7701    7.3178 C.3       11 UNK         0.1003 
     66 C          34.9075   28.0509    8.7197 C.2       11 UNK         0.5709 
     67 N          35.1306   27.0157    9.5179 N.am      11 UNK        -0.7358 
     68 O          35.1398   29.1964    9.1038 O.2       11 UNK        -0.4999 
     69 C69        32.7497   27.7866    7.3850 C.3       12 UNK        -0.0954 
     70 S70        31.9685   27.1526    5.8637 S.3       12 UNK        -0.2268 
     71 C71        31.6922   25.4186    6.3429 C.3       12 UNK         0.0203 
     72 H72        33.4014   27.2478   -3.7574 H         1 UNK         0.0888 
     73 H73        34.3760   27.8614   -2.4191 H         1 UNK         0.0888 
     74 H74        33.8658   26.1723   -2.4370 H         1 UNK         0.0888 
     75 H75        32.1695   25.7806   -1.0190 H         1 UNK         0.3017 
     76 H76        30.6102   27.9176    0.1075 H         1 UNK         0.0873 
     77 H77        31.3171   26.0812    1.5252 H         1 UNK         0.0745 
     78 H78        29.5805   26.1145    1.4901 H         1 UNK         0.0745 
     79 H79        31.4588   22.3236    1.5185 H         1 UNK         0.0705 
     80 H80        32.4141   23.7794    1.6501 H         1 UNK         0.0705 
     81 H81        32.4202   24.8605    3.7747 H         1 UNK         0.1334 
     82 H82        29.2631   24.2032    6.5997 H         1 UNK         0.1417 
     83 H83        29.0503   22.4303    2.7015 H         1 UNK         0.1562 
     84 H84        27.5028   22.6570    6.1313 H         1 UNK         0.0748 
     85 H85        27.7830   21.5078    4.8511 H         1 UNK         0.0748 
     86 H86        26.5498   24.9079    5.8571 H         1 UNK         0.0940 
     87 H87        25.0273   25.0788    5.0252 H         1 UNK         0.0940 
     88 H88        27.7624   25.7861    3.8603 H         1 UNK         0.0703 
     89 H89        26.7635   25.7168    1.8898 H         1 UNK         0.3081 
     90 H90        23.6389   26.1315    0.5441 H         1 UNK         0.0719 
     91 H91        24.0862   28.5757    0.7048 H         1 UNK         0.0809 
     92 H92        25.7868   28.3166    0.3449 H         1 UNK         0.0809 
     93 H93        24.5622   27.9678   -0.8728 H         1 UNK         0.0809 
     94 H94        26.3809   26.0769   -0.4635 H         1 UNK         0.2990 
     95 H95        27.1449   23.0603   -0.3148 H         1 UNK         0.0690 
     96 H96        26.6647   21.9361   -2.5092 H         1 UNK         0.0788 
     97 H97        25.1739   22.8671   -2.6531 H         1 UNK         0.0788 
     98 H98        25.3691   21.7092   -1.3479 H         1 UNK         0.0788 
     99 H99        28.3440   24.4622   -1.5032 H         1 UNK         0.2993 
    100 H100       28.5593   25.7814   -4.2012 H         1 UNK         0.0949 
    101 H101       27.0437   28.1016   -2.8904 H         1 UNK         0.0767 
    102 H102       28.3613   28.2996   -4.0453 H         1 UNK         0.0767 
    103 H103       26.8652   27.5255   -4.5395 H         1 UNK         0.0767 
    104 H104       30.1625   26.0982   -2.7044 H         1 UNK         0.3013 
    105 H105       27.1459   29.3706    4.4859 H         1 UNK         0.3121 
    106 H106       27.8887   27.7275    2.1855 H         1 UNK         0.0774 
    107 H107       29.9282   28.8845    4.1697 H         1 UNK         0.0815 
    108 H108       29.7169   27.1763    3.7971 H         1 UNK         0.0815 
    109 H109       30.3090   28.2790    2.5673 H         1 UNK         0.0815 
    110 H110       28.3686   28.9844    0.4390 H         1 UNK         0.2987 
    111 H111       27.5573   31.7492    0.4133 H         1 UNK         0.0949 
    112 H112       27.1425   30.1836   -1.4736 H         1 UNK         0.0806 
    113 H113       28.1046   31.5536   -2.0028 H         1 UNK         0.0806 
    114 H114       28.8776   29.9984   -1.7289 H         1 UNK         0.0806 
    115 H115       29.2464   32.0422    2.2500 H         1 UNK         0.3010 
    116 H116       30.9566   33.1775    3.0849 H         1 UNK         0.0829 
    117 H117       31.3640   34.3766    0.2962 H         1 UNK         0.0813 
    118 H118       30.2140   34.9643    1.4970 H         1 UNK         0.0813 
    119 H119       31.9377   35.0462    1.8154 H         1 UNK         0.0813 
    120 H120       31.5291   30.5453    2.4500 H         1 UNK         0.3038 
    121 H121       34.2949   30.3812    1.4619 H         1 UNK         0.0769 
    122 H122       32.6462   28.4935    1.1136 H         1 UNK         0.0811 
    123 H123       32.5834   28.2529    2.8656 H         1 UNK         0.0811 
    124 H124       34.0762   27.9869    1.9879 H         1 UNK         0.0811 
    125 H125       35.9954   29.5091    2.8594 H         1 UNK         0.3204 
    126 H126       36.1832   30.8626    5.4245 H         1 UNK         0.0748 
    127 H127       38.1565   29.0504    3.9377 H         1 UNK         0.0771 
    128 H128       38.0906   30.8104    3.8380 H         1 UNK         0.0771 
    129 H129       38.5229   30.0327    5.3497 H         1 UNK         0.0771 
    130 H130       34.1382   29.3845    5.9423 H         1 UNK         0.2980 
    131 H131       34.6141   26.7682    7.0195 H         1 UNK         0.0545 
    132 H132       35.5111   27.1798   10.4369 H         1 UNK         0.3459 
    133 H133       34.9340   26.0732    9.2190 H         1 UNK         0.3459 
    134 H134       32.3885   28.8027    7.5544 H         1 UNK         0.0616 
    135 H135       32.3906   27.1988    8.2319 H         1 UNK         0.0616 
    136 H136       31.1643   25.3954    7.2975 H         1 UNK         0.0634 
    137 H137       32.6569   24.9380    6.5107 H         1 UNK         0.0634 
@<TRIPOS>BOND
     1    1    2 1    
     2    1   72 1    
     3    1   73 1    
     4    1   74 1    
     5    2    3 2    
     6    2    4 am   BACKBONE|DICT|INTERRES
     7    4    5 1    
     8    4   75 1    
     9    5    6 1    
    10    5   35 1    
    11    5   76 1    
    12    6    7 1    
    13    6   77 1    
    14    6   78 1    
    15    7    8 1    
    16    8    9 1    
    17    8   79 1    
    18    8   80 1    
    19    9   10 ar   
    20    9   14 ar   
    21   10   11 ar   
    22   10   81 1    
    23   11   12 ar   
    24   11   71 1    
    25   12   13 ar   
    26   12   82 1    
    27   13   14 ar   
    28   13   15 1    
    29   14   83 1    
    30   15   16 1    
    31   15   84 1    
    32   15   85 1    
    33   16   17 1    
    34   17   18 1    
    35   17   86 1    
    36   17   87 1    
    37   18   19 1    
    38   18   37 1    
    39   18   88 1    
    40   19   20 am   BACKBONE|DICT|INTERRES
    41   19   89 1    
    42   20   21 2    
    43   20   22 1    
    44   22   23 1    
    45   22   24 1    
    46   22   90 1    
    47   23   91 1    
    48   23   92 1    
    49   23   93 1    
    50   24   25 am   BACKBONE|DICT|INTERRES
    51   24   94 1    
    52   25   26 2    
    53   25   27 1    
    54   27   28 1    
    55   27   29 1    
    56   27   95 1    
    57   28   96 1    
    58   28   97 1    
    59   28   98 1    
    60   29   30 am   BACKBONE|DICT|INTERRES
    61   29   99 1    
    62   30   31 2    
    63   30   32 1    
    64   32   33 1    
    65   32   34 1    
    66   32  100 1    
    67   33  101 1    
    68   33  102 1    
    69   33  103 1    
    70   34   35 am   BACKBONE|DICT|INTERRES
    71   34  104 1    
    72   35   36 2    
    73   37   38 2    
    74   37   39 am   BACKBONE|DICT|INTERRES
    75   39   40 1    
    76   39  105 1    
    77   40   41 1    
    78   40   42 1    
    79   40  106 1    
    80   41  107 1    
    81   41  108 1    
    82   41  109 1    
    83   42   43 2    
    84   42   44 am   BACKBONE|DICT|INTERRES
    85   44   45 1    
    86   44  110 1    
    87   45   46 1    
    88   45   47 1    
    89   45  111 1    
    90   46  112 1    
    91   46  113 1    
    92   46  114 1    
    93   47   48 2    
    94   47   49 am   BACKBONE|DICT|INTERRES
    95   49   50 1    
    96   49  115 1    
    97   50   51 1    
    98   50   52 1    
    99   50  116 1    
   100   51  117 1    
   101   51  118 1    
   102   51  119 1    
   103   52   53 2    
   104   52   54 am   BACKBONE|DICT|INTERRES
   105   54   55 1    
   106   54  120 1    
   107   55   56 1    
   108   55   57 1    
   109   55  121 1    
   110   56  122 1    
   111   56  123 1    
   112   56  124 1    
   113   57   58 2    
   114   57   59 am   BACKBONE|DICT|INTERRES
   115   59   60 1    
   116   59  125 1    
   117   60   61 1    
   118   60   62 1    
   119   60  126 1    
   120   61  127 1    
   121   61  128 1    
   122   61  129 1    
   123   62   63 2    
   124   62   64 am   BACKBONE|DICT|INTERRES
   125   64   65 1    
   126   64  130 1    
   127   65   66 1    
   128   65   69 1    
   129   65  131 1    
   130   66   67 am   BACKBONE|DICT|INTERRES
   131   66   68 2    
   132   67  132 1    
   133   67  133 1    
   134   69   70 1    
   135   69  134 1    
   136   69  135 1    
   137   70   71 1    
   138   71  136 1    
   139   71  137 1    
@<TRIPOS>SUBSTRUCTURE
     1 UNK         1 GROUP             0       ****    0 ROOT    
