@<TRIPOS>MOLECULE
3R136
137   139    1
SMALL
USER_CHARGES


@<TRIPOS>ATOM
      1 CA         30.6276   26.1764    4.0424 C.3       0 UNK        -0.1979 
      2 C          29.4556   25.2277    3.8460 C.2       0 UNK         0.4864 
      3 O          28.5060   25.2616    4.6292 O.2       0 UNK        -0.5359 
      4 N          29.5144   24.3838    2.8074 N.am      1 UNK        -0.4318 
      5 CA         28.4249   23.4960    2.3859 C.3       1 UNK         0.0824 
      6 C6         28.9057   22.4530    1.3473 C.3       12 UNK        -0.0944 
      7 S7         30.1176   21.2921    2.0613 S.3       12 UNK        -0.2672 
      8 C8         31.5286   21.4544    0.9231 C.3       12 UNK         0.0333 
      9 C9         32.2674   22.7719    1.1061 C.ar      12 UNK        -0.0807 
     10 C10        33.0950   22.9611    2.2168 C.ar      12 UNK        -0.0894 
     11 C11        33.8073   24.1525    2.3749 C.ar      12 UNK        -0.0804 
     12 C12        33.6760   25.1659    1.4196 C.ar      12 UNK        -0.0824 
     13 C13        32.8529   24.9897    0.3019 C.ar      12 UNK        -0.0762 
     14 C14        32.1559   23.7855    0.1494 C.ar      12 UNK        -0.0782 
     15 C15        32.7609   26.0862   -0.7571 C.3       12 UNK         0.0230 
     16 S16        31.0497   26.4750   -1.2553 S.3       12 UNK        -0.2608 
     17 C17        30.3203   26.9863    0.3322 C.3       12 UNK        -0.0989 
     18 CA         29.3755   28.2021    0.2008 C.3       5 UNK         0.0716 
     19 N          28.2489   27.9379   -0.7068 N.am      5 UNK        -0.4135 
     20 C          27.2772   28.8018   -1.0315 C.2       4 UNK         0.5031 
     21 O          27.1841   29.9304   -0.5473 O.2       4 UNK        -0.5229 
     22 CA         26.2150   28.3603   -2.0568 C.3       4 UNK         0.0329 
     23 CB         26.6062   28.8137   -3.4769 C.3       4 UNK        -0.2001 
     24 N          25.8452   26.9371   -2.0325 N.am      4 UNK        -0.4303 
     25 C          26.5702   25.8613   -2.3657 C.2       3 UNK         0.5044 
     26 O          27.7564   25.9089   -2.6918 O.2       3 UNK        -0.5152 
     27 CA         25.8442   24.5028   -2.2799 C.3       3 UNK         0.0319 
     28 CB         26.6262   23.3745   -2.9778 C.3       3 UNK        -0.2001 
     29 N          25.6047   24.1160   -0.8898 N.am      3 UNK        -0.4354 
     30 C          24.7130   24.6770   -0.0612 C.2       2 UNK         0.4964 
     31 O          23.8882   25.5189   -0.4207 O.2       2 UNK        -0.5047 
     32 CA         24.7588   24.2559    1.4211 C.3       2 UNK         0.0288 
     33 CB         23.6234   23.2668    1.7311 C.3       2 UNK        -0.2113 
     34 N          26.0343   23.6774    1.8684 N.am      2 UNK        -0.4145 
     35 C          27.2255   24.2933    1.8291 C.2       1 UNK         0.5006 
     36 O          27.3934   25.4152    1.3434 O.2       1 UNK        -0.5103 
     37 C          28.9367   28.6844    1.5988 C.2       5 UNK         0.5055 
     38 O          29.5799   29.5741    2.1528 O.2       5 UNK        -0.5220 
     39 N          27.8347   28.1224    2.1173 N.am      6 UNK        -0.4450 
     40 CA         27.1971   28.4451    3.4003 C.3       6 UNK         0.0367 
     41 CB         25.9687   27.5374    3.5849 C.3       6 UNK        -0.1929 
     42 C          26.7908   29.9193    3.6009 C.2       6 UNK         0.5070 
     43 O          26.5173   30.3090    4.7367 O.2       6 UNK        -0.5237 
     44 N          26.7533   30.7185    2.5248 N.am      7 UNK        -0.4739 
     45 CA         26.5047   32.1622    2.5671 C.3       7 UNK         0.0276 
     46 CB         26.2428   32.6645    1.1380 C.3       7 UNK        -0.1927 
     47 C          27.6376   32.9783    3.2246 C.2       7 UNK         0.5013 
     48 O          27.4085   34.1423    3.5580 O.2       7 UNK        -0.5193 
     49 N          28.8251   32.3828    3.3954 N.am      8 UNK        -0.4253 
     50 CA         29.9924   32.9924    4.0283 C.3       8 UNK         0.0242 
     51 CB         30.9107   33.5615    2.9303 C.3       8 UNK        -0.2000 
     52 C          30.7281   31.9446    4.8736 C.2       8 UNK         0.4948 
     53 O          30.4223   30.7527    4.7958 O.2       8 UNK        -0.5275 
     54 N          31.7405   32.3872    5.6302 N.am      9 UNK        -0.4246 
     55 CA         32.6746   31.5251    6.3650 C.3       9 UNK         0.0261 
     56 CB         33.3009   32.3312    7.5186 C.3       9 UNK        -0.1959 
     57 C          33.7340   30.9189    5.4196 C.2       9 UNK         0.5033 
     58 O          34.9346   31.0988    5.6352 O.2       9 UNK        -0.5390 
     59 N          33.2645   30.2333    4.3677 N.am      10 UNK        -0.4215 
     60 CA         34.0526   29.7255    3.2392 C.3       10 UNK         0.0240 
     61 CB         33.1020   29.0863    2.2148 C.3       10 UNK        -0.1982 
     62 C          35.1667   28.7362    3.6189 C.2       10 UNK         0.4970 
     63 O          36.1740   28.6696    2.9134 O.2       10 UNK        -0.4916 
     64 N          34.9673   27.9943    4.7136 N.am      11 UNK        -0.4279 
     65 CA         35.9386   27.0373    5.2626 C.3       11 UNK         0.1003 
     66 C          36.9983   27.6837    6.2025 C.2       11 UNK         0.5709 
     67 N          36.9466   28.9815    6.4850 N.am      11 UNK        -0.7358 
     68 O          37.8971   26.9936    6.6779 O.2       11 UNK        -0.4999 
     69 C69        35.2473   25.8127    5.9281 C.3       12 UNK        -0.0954 
     70 S70        33.8693   25.1133    4.9549 S.3       12 UNK        -0.2268 
     71 C71        34.7398   24.3385    3.5619 C.3       12 UNK         0.0203 
     72 H72        30.3049   27.2091    3.9140 H         1 UNK         0.0888 
     73 H73        31.0266   26.0712    5.0505 H         1 UNK         0.0888 
     74 H74        31.4321   25.9792    3.3345 H         1 UNK         0.0888 
     75 H75        30.3386   24.3635    2.2242 H         1 UNK         0.3017 
     76 H76        28.0759   22.9646    3.2742 H         1 UNK         0.0873 
     77 H77        29.3245   22.9484    0.4693 H         1 UNK         0.0745 
     78 H78        28.0712   21.8506    0.9832 H         1 UNK         0.0745 
     79 H79        32.2199   20.6303    1.1053 H         1 UNK         0.0705 
     80 H80        31.1826   21.3366   -0.1051 H         1 UNK         0.0705 
     81 H81        33.1914   22.1748    2.9535 H         1 UNK         0.1334 
     82 H82        34.2314   26.0861    1.5418 H         1 UNK         0.1417 
     83 H83        31.5324   23.6369   -0.7220 H         1 UNK         0.1562 
     84 H84        33.3166   25.7658   -1.6392 H         1 UNK         0.0748 
     85 H85        33.2389   27.0034   -0.4105 H         1 UNK         0.0748 
     86 H86        31.1264   27.2093    1.0322 H         1 UNK         0.0940 
     87 H87        29.7893   26.1285    0.7405 H         1 UNK         0.0940 
     88 H88        29.9438   29.0212   -0.2447 H         1 UNK         0.0703 
     89 H89        28.2686   27.0514   -1.2024 H         1 UNK         0.3081 
     90 H90        25.3013   28.8935   -1.7891 H         1 UNK         0.0719 
     91 H91        27.5250   28.3365   -3.8194 H         1 UNK         0.0809 
     92 H92        25.8204   28.5862   -4.1971 H         1 UNK         0.0809 
     93 H93        26.7720   29.8915   -3.5085 H         1 UNK         0.0809 
     94 H94        24.9153   26.7438   -1.6722 H         1 UNK         0.2990 
     95 H95        24.8825   24.6072   -2.7869 H         1 UNK         0.0690 
     96 H96        26.0678   22.4383   -2.9660 H         1 UNK         0.0788 
     97 H97        27.5919   23.1957   -2.5026 H         1 UNK         0.0788 
     98 H98        26.8184   23.6226   -4.0226 H         1 UNK         0.0788 
     99 H99        26.2503   23.4482   -0.4970 H         1 UNK         0.2993 
    100 H100       24.5917   25.1617    2.0075 H         1 UNK         0.0949 
    101 H101       23.5685   23.0456    2.7974 H         1 UNK         0.0767 
    102 H102       22.6556   23.6773    1.4388 H         1 UNK         0.0767 
    103 H103       23.7522   22.3244    1.1971 H         1 UNK         0.0767 
    104 H104       25.9829   22.7522    2.2708 H         1 UNK         0.3013 
    105 H105       27.4458   27.3266    1.6175 H         1 UNK         0.3121 
    106 H106       27.9186   28.2106    4.1852 H         1 UNK         0.0774 
    107 H107       25.4495   27.7598    4.5182 H         1 UNK         0.0815 
    108 H108       25.2510   27.6613    2.7732 H         1 UNK         0.0815 
    109 H109       26.2542   26.4874    3.6273 H         1 UNK         0.0815 
    110 H110       26.9915   30.3272    1.6200 H         1 UNK         0.2987 
    111 H111       25.6028   32.3307    3.1596 H         1 UNK         0.0949 
    112 H112       27.1168   32.5300    0.4993 H         1 UNK         0.0806 
    113 H113       25.4076   32.1368    0.6771 H         1 UNK         0.0806 
    114 H114       25.9963   33.7271    1.1346 H         1 UNK         0.0806 
    115 H115       28.9366   31.4032    3.1459 H         1 UNK         0.3010 
    116 H116       29.6793   33.7958    4.6986 H         1 UNK         0.0829 
    117 H117       30.3877   34.2994    2.3216 H         1 UNK         0.0813 
    118 H118       31.7837   34.0582    3.3548 H         1 UNK         0.0813 
    119 H119       31.2718   32.7761    2.2645 H         1 UNK         0.0813 
    120 H120       31.9554   33.3744    5.6231 H         1 UNK         0.3038 
    121 H121       32.1206   30.6932    6.8056 H         1 UNK         0.0769 
    122 H122       33.8812   33.1789    7.1519 H         1 UNK         0.0811 
    123 H123       33.9727   31.7081    8.1106 H         1 UNK         0.0811 
    124 H124       32.5372   32.7141    8.1957 H         1 UNK         0.0811 
    125 H125       32.2534   30.1519    4.2937 H         1 UNK         0.3204 
    126 H126       34.5333   30.5862    2.7700 H         1 UNK         0.0748 
    127 H127       33.6489   28.7304    1.3410 H         1 UNK         0.0771 
    128 H128       32.5719   28.2348    2.6420 H         1 UNK         0.0771 
    129 H129       32.3586   29.8012    1.8609 H         1 UNK         0.0771 
    130 H130       34.1126   28.1128    5.2353 H         1 UNK         0.2980 
    131 H131       36.5237   26.6486    4.4284 H         1 UNK         0.0545 
    132 H132       36.2264   29.5792    6.0946 H         1 UNK         0.3459 
    133 H133       37.6468   29.3775    7.0914 H         1 UNK         0.3459 
    134 H134       35.9732   25.0204    6.1191 H         1 UNK         0.0616 
    135 H135       34.8418   26.0947    6.9013 H         1 UNK         0.0616 
    136 H136       35.5890   24.9500    3.2578 H         1 UNK         0.0634 
    137 H137       35.1504   23.3800    3.8828 H         1 UNK         0.0634 
@<TRIPOS>BOND
     1    1    2 1    
     2    1   72 1    
     3    1   73 1    
     4    1   74 1    
     5    2    3 2    
     6    2    4 am   BACKBONE|DICT|INTERRES
     7    4    5 1    
     8    4   75 1    
     9    5    6 1    
    10    5   35 1    
    11    5   76 1    
    12    6    7 1    
    13    6   77 1    
    14    6   78 1    
    15    7    8 1    
    16    8    9 1    
    17    8   79 1    
    18    8   80 1    
    19    9   10 ar   
    20    9   14 ar   
    21   10   11 ar   
    22   10   81 1    
    23   11   12 ar   
    24   11   71 1    
    25   12   13 ar   
    26   12   82 1    
    27   13   14 ar   
    28   13   15 1    
    29   14   83 1    
    30   15   16 1    
    31   15   84 1    
    32   15   85 1    
    33   16   17 1    
    34   17   18 1    
    35   17   86 1    
    36   17   87 1    
    37   18   19 1    
    38   18   37 1    
    39   18   88 1    
    40   19   20 am   BACKBONE|DICT|INTERRES
    41   19   89 1    
    42   20   21 2    
    43   20   22 1    
    44   22   23 1    
    45   22   24 1    
    46   22   90 1    
    47   23   91 1    
    48   23   92 1    
    49   23   93 1    
    50   24   25 am   BACKBONE|DICT|INTERRES
    51   24   94 1    
    52   25   26 2    
    53   25   27 1    
    54   27   28 1    
    55   27   29 1    
    56   27   95 1    
    57   28   96 1    
    58   28   97 1    
    59   28   98 1    
    60   29   30 am   BACKBONE|DICT|INTERRES
    61   29   99 1    
    62   30   31 2    
    63   30   32 1    
    64   32   33 1    
    65   32   34 1    
    66   32  100 1    
    67   33  101 1    
    68   33  102 1    
    69   33  103 1    
    70   34   35 am   BACKBONE|DICT|INTERRES
    71   34  104 1    
    72   35   36 2    
    73   37   38 2    
    74   37   39 am   BACKBONE|DICT|INTERRES
    75   39   40 1    
    76   39  105 1    
    77   40   41 1    
    78   40   42 1    
    79   40  106 1    
    80   41  107 1    
    81   41  108 1    
    82   41  109 1    
    83   42   43 2    
    84   42   44 am   BACKBONE|DICT|INTERRES
    85   44   45 1    
    86   44  110 1    
    87   45   46 1    
    88   45   47 1    
    89   45  111 1    
    90   46  112 1    
    91   46  113 1    
    92   46  114 1    
    93   47   48 2    
    94   47   49 am   BACKBONE|DICT|INTERRES
    95   49   50 1    
    96   49  115 1    
    97   50   51 1    
    98   50   52 1    
    99   50  116 1    
   100   51  117 1    
   101   51  118 1    
   102   51  119 1    
   103   52   53 2    
   104   52   54 am   BACKBONE|DICT|INTERRES
   105   54   55 1    
   106   54  120 1    
   107   55   56 1    
   108   55   57 1    
   109   55  121 1    
   110   56  122 1    
   111   56  123 1    
   112   56  124 1    
   113   57   58 2    
   114   57   59 am   BACKBONE|DICT|INTERRES
   115   59   60 1    
   116   59  125 1    
   117   60   61 1    
   118   60   62 1    
   119   60  126 1    
   120   61  127 1    
   121   61  128 1    
   122   61  129 1    
   123   62   63 2    
   124   62   64 am   BACKBONE|DICT|INTERRES
   125   64   65 1    
   126   64  130 1    
   127   65   66 1    
   128   65   69 1    
   129   65  131 1    
   130   66   67 am   BACKBONE|DICT|INTERRES
   131   66   68 2    
   132   67  132 1    
   133   67  133 1    
   134   69   70 1    
   135   69  134 1    
   136   69  135 1    
   137   70   71 1    
   138   71  136 1    
   139   71  137 1    
@<TRIPOS>SUBSTRUCTURE
     1 UNK         1 GROUP             0       ****    0 ROOT    
