@<TRIPOS>MOLECULE
3R136
137   139    1
SMALL
USER_CHARGES


@<TRIPOS>ATOM
      1 CA         28.2455   23.2695    4.3111 C.3       0 UNK        -0.1979 
      2 C          28.3413   22.2452    3.1938 C.2       0 UNK         0.4864 
      3 O          27.8386   21.1289    3.3410 O.2       0 UNK        -0.5359 
      4 N          28.9654   22.6116    2.0666 N.am      1 UNK        -0.4318 
      5 CA         29.0892   21.7673    0.8746 C.3       1 UNK         0.0824 
      6 C6         30.3649   22.1008    0.0617 C.3       12 UNK        -0.0944 
      7 S7         31.8713   21.6870    1.0034 S.3       12 UNK        -0.2672 
      8 C8         33.0061   23.0323    0.5230 C.3       12 UNK         0.0333 
      9 C9         32.6693   24.3996    1.1168 C.ar      12 UNK        -0.0807 
     10 C10        32.8306   25.5434    0.3288 C.ar      12 UNK        -0.0894 
     11 C11        32.6027   26.8142    0.8621 C.ar      12 UNK        -0.0804 
     12 C12        32.2133   26.9410    2.1986 C.ar      12 UNK        -0.0824 
     13 C13        31.9994   25.8072    2.9901 C.ar      12 UNK        -0.0762 
     14 C14        32.2505   24.5414    2.4463 C.ar      12 UNK        -0.0782 
     15 C15        31.5209   25.9237    4.4371 C.3       12 UNK         0.0230 
     16 S16        30.2512   27.2094    4.7336 S.3       12 UNK        -0.2608 
     17 C17        28.8969   26.7583    3.5964 C.3       12 UNK        -0.0989 
     18 CA         28.7647   27.7809    2.4289 C.3       5 UNK         0.0716 
     19 N          28.1596   27.2736    1.1974 N.am      5 UNK        -0.4135 
     20 C          28.5324   26.2136    0.4728 C.2       4 UNK         0.5031 
     21 O          29.2599   25.3053    0.8726 O.2       4 UNK        -0.5229 
     22 CA         27.9941   26.1721   -0.9648 C.3       4 UNK         0.0329 
     23 CB         29.0150   25.5728   -1.9492 C.3       4 UNK        -0.2001 
     24 N          26.7459   25.4165   -1.0293 N.am      4 UNK        -0.4303 
     25 C          25.5387   25.9436   -0.7779 C.2       3 UNK         0.5044 
     26 O          25.3705   27.1197   -0.4509 O.2       3 UNK        -0.5152 
     27 CA         24.3038   25.0353   -0.9382 C.3       3 UNK         0.0319 
     28 CB         23.6028   25.3175   -2.2772 C.3       3 UNK        -0.2001 
     29 N          24.6101   23.6062   -0.8542 N.am      3 UNK        -0.4354 
     30 C          24.9078   22.9631    0.2813 C.2       2 UNK         0.4964 
     31 O          24.9011   23.4977    1.3913 O.2       2 UNK        -0.5047 
     32 CA         25.3138   21.4816    0.1733 C.3       2 UNK         0.0288 
     33 CB         25.0712   20.8398   -1.2134 C.3       2 UNK        -0.2113 
     34 N          26.7059   21.3201    0.6009 N.am      2 UNK        -0.4145 
     35 C          27.7912   21.8882    0.0526 C.2       1 UNK         0.5006 
     36 O          27.7732   22.5260   -1.0025 O.2       1 UNK        -0.5103 
     37 C          27.9421   29.0194    2.8196 C.2       5 UNK         0.5055 
     38 O          26.7786   28.8719    3.2007 O.2       5 UNK        -0.5220 
     39 N          28.5263   30.2139    2.6659 N.am      6 UNK        -0.4450 
     40 CA         27.8889   31.4953    2.9888 C.3       6 UNK         0.0367 
     41 CB         28.3592   32.5659    1.9901 C.3       6 UNK        -0.1929 
     42 C          28.2048   31.9354    4.4264 C.2       6 UNK         0.5070 
     43 O          27.3539   32.5357    5.0832 O.2       6 UNK        -0.5237 
     44 N          29.4167   31.6189    4.8870 N.am      7 UNK        -0.4739 
     45 CA         29.9390   31.8299    6.2334 C.3       7 UNK         0.0276 
     46 CB         30.3711   33.2976    6.4196 C.3       7 UNK        -0.1927 
     47 C          31.1015   30.8449    6.4202 C.2       7 UNK         0.5013 
     48 O          31.4350   30.1357    5.4694 O.2       7 UNK        -0.5193 
     49 N          31.6877   30.8016    7.6252 N.am      8 UNK        -0.4253 
     50 CA         32.7493   29.8744    8.0469 C.3       8 UNK         0.0242 
     51 CB         33.2417   30.2829    9.4469 C.3       8 UNK        -0.2000 
     52 C          33.9234   29.7630    7.0502 C.2       8 UNK         0.4948 
     53 O          34.8183   30.6105    7.0611 O.2       8 UNK        -0.5275 
     54 N          33.8593   28.7290    6.1964 N.am      9 UNK        -0.4246 
     55 CA         34.7622   28.4224    5.0799 C.3       9 UNK         0.0261 
     56 CB         36.1626   28.0341    5.6015 C.3       9 UNK        -0.1959 
     57 C          34.8083   29.5175    3.9910 C.2       9 UNK         0.5033 
     58 O          35.8492   29.6880    3.3519 O.2       9 UNK        -0.5390 
     59 N          33.6942   30.2329    3.7861 N.am      10 UNK        -0.4215 
     60 CA         33.5557   31.3120    2.8105 C.3       10 UNK         0.0240 
     61 CB         33.4859   32.6531    3.5564 C.3       10 UNK        -0.1982 
     62 C          32.2924   31.1028    1.9693 C.2       10 UNK         0.4970 
     63 O          31.2898   30.5943    2.4751 O.2       10 UNK        -0.4916 
     64 N          32.3668   31.5232    0.7039 N.am      11 UNK        -0.4279 
     65 CA         31.2930   31.4400   -0.2996 C.3       11 UNK         0.1003 
     66 C          31.0438   32.7965   -1.0231 C.2       11 UNK         0.5709 
     67 N          31.6105   33.9090   -0.5688 N.am      11 UNK        -0.7358 
     68 O          30.3022   32.8530   -2.0010 O.2       11 UNK        -0.4999 
     69 C69        31.5367   30.2643   -1.2886 C.3       12 UNK        -0.0954 
     70 S70        31.1291   28.6544   -0.5438 S.3       12 UNK        -0.2268 
     71 C71        32.7581   28.0514   -0.0070 C.3       12 UNK         0.0203 
     72 H72        27.9429   22.7942    5.2440 H         1 UNK         0.0888 
     73 H73        29.2075   23.7482    4.4788 H         1 UNK         0.0888 
     74 H74        27.5068   24.0311    4.0630 H         1 UNK         0.0888 
     75 H75        29.2865   23.5677    1.9378 H         1 UNK         0.3017 
     76 H76        29.1696   20.7216    1.1808 H         1 UNK         0.0873 
     77 H77        30.3837   23.1559   -0.2132 H         1 UNK         0.0745 
     78 H78        30.3877   21.5365   -0.8723 H         1 UNK         0.0745 
     79 H79        33.0366   23.0823   -0.5667 H         1 UNK         0.0705 
     80 H80        34.0125   22.7625    0.8449 H         1 UNK         0.0705 
     81 H81        33.1423   25.4465   -0.7021 H         1 UNK         0.1334 
     82 H82        32.0415   27.9260    2.6103 H         1 UNK         0.1417 
     83 H83        32.1214   23.6607    3.0599 H         1 UNK         0.1562 
     84 H84        32.3831   26.1395    5.0677 H         1 UNK         0.0748 
     85 H85        31.1290   24.9688    4.7864 H         1 UNK         0.0748 
     86 H86        27.9662   26.6635    4.1587 H         1 UNK         0.0940 
     87 H87        29.1114   25.7600    3.2290 H         1 UNK         0.0940 
     88 H88        29.7609   28.1155    2.1412 H         1 UNK         0.0703 
     89 H89        27.4605   27.8881    0.7997 H         1 UNK         0.3081 
     90 H90        27.8137   27.1991   -1.2911 H         1 UNK         0.0719 
     91 H91        29.9614   26.1129   -1.9025 H         1 UNK         0.0809 
     92 H92        29.2318   24.5286   -1.7317 H         1 UNK         0.0809 
     93 H93        28.6563   25.6321   -2.9766 H         1 UNK         0.0809 
     94 H94        26.8318   24.4233   -1.2159 H         1 UNK         0.2990 
     95 H95        23.6094   25.2859   -0.1332 H         1 UNK         0.0690 
     96 H96        22.6843   24.7383   -2.3748 H         1 UNK         0.0788 
     97 H97        24.2437   25.0793   -3.1271 H         1 UNK         0.0788 
     98 H98        23.3297   26.3705   -2.3604 H         1 UNK         0.0788 
     99 H99        24.6595   23.0944   -1.7237 H         1 UNK         0.2993 
    100 H100       24.6999   20.9448    0.8983 H         1 UNK         0.0949 
    101 H101       25.6610   21.3051   -2.0036 H         1 UNK         0.0767 
    102 H102       25.3271   19.7802   -1.1988 H         1 UNK         0.0767 
    103 H103       24.0205   20.9078   -1.4988 H         1 UNK         0.0767 
    104 H104       26.8344   20.9037    1.5180 H         1 UNK         0.3013 
    105 H105       29.5144   30.2524    2.4166 H         1 UNK         0.3121 
    106 H106       26.8045   31.4028    2.8964 H         1 UNK         0.0774 
    107 H107       27.8712   33.5213    2.1874 H         1 UNK         0.0815 
    108 H108       29.4351   32.7334    2.0513 H         1 UNK         0.0815 
    109 H109       28.1180   32.2858    0.9647 H         1 UNK         0.0815 
    110 H110       30.0431   31.0717    4.3022 H         1 UNK         0.2987 
    111 H111       29.1629   31.5774    6.9590 H         1 UNK         0.0949 
    112 H112       29.5292   33.9770    6.2856 H         1 UNK         0.0806 
    113 H113       30.7639   33.4732    7.4214 H         1 UNK         0.0806 
    114 H114       31.1445   33.5880    5.7099 H         1 UNK         0.0806 
    115 H115       31.3560   31.4385    8.3346 H         1 UNK         0.3010 
    116 H116       32.2914   28.8872    8.1376 H         1 UNK         0.0829 
    117 H117       32.4388   30.2334   10.1827 H         1 UNK         0.0813 
    118 H118       34.0351   29.6179    9.7911 H         1 UNK         0.0813 
    119 H119       33.6423   31.2975    9.4539 H         1 UNK         0.0813 
    120 H120       33.0292   28.1540    6.2428 H         1 UNK         0.3038 
    121 H121       34.3451   27.5431    4.5877 H         1 UNK         0.0769 
    122 H122       36.7937   27.6634    4.7928 H         1 UNK         0.0811 
    123 H123       36.1027   27.2443    6.3501 H         1 UNK         0.0811 
    124 H124       36.6764   28.8847    6.0503 H         1 UNK         0.0811 
    125 H125       32.8565   30.0367    4.3370 H         1 UNK         0.3204 
    126 H126       34.4157   31.3280    2.1377 H         1 UNK         0.0748 
    127 H127       33.3966   33.4896    2.8624 H         1 UNK         0.0771 
    128 H128       32.6277   32.6877    4.2260 H         1 UNK         0.0771 
    129 H129       34.3820   32.8194    4.1547 H         1 UNK         0.0771 
    130 H130       33.2272   31.9373    0.3748 H         1 UNK         0.2980 
    131 H131       30.3472   31.2512    0.2101 H         1 UNK         0.0545 
    132 H132       31.4294   34.7777   -1.0470 H         1 UNK         0.3459 
    133 H133       32.1801   33.9041    0.2609 H         1 UNK         0.3459 
    134 H134       30.9032   30.3522   -2.1727 H         1 UNK         0.0616 
    135 H135       32.5648   30.2626   -1.6543 H         1 UNK         0.0616 
    136 H136       33.3677   27.8353   -0.8855 H         1 UNK         0.0634 
    137 H137       33.2847   28.8239    0.5521 H         1 UNK         0.0634 
@<TRIPOS>BOND
     1    1    2 1    
     2    1   72 1    
     3    1   73 1    
     4    1   74 1    
     5    2    3 2    
     6    2    4 am   BACKBONE|DICT|INTERRES
     7    4    5 1    
     8    4   75 1    
     9    5    6 1    
    10    5   35 1    
    11    5   76 1    
    12    6    7 1    
    13    6   77 1    
    14    6   78 1    
    15    7    8 1    
    16    8    9 1    
    17    8   79 1    
    18    8   80 1    
    19    9   10 ar   
    20    9   14 ar   
    21   10   11 ar   
    22   10   81 1    
    23   11   12 ar   
    24   11   71 1    
    25   12   13 ar   
    26   12   82 1    
    27   13   14 ar   
    28   13   15 1    
    29   14   83 1    
    30   15   16 1    
    31   15   84 1    
    32   15   85 1    
    33   16   17 1    
    34   17   18 1    
    35   17   86 1    
    36   17   87 1    
    37   18   19 1    
    38   18   37 1    
    39   18   88 1    
    40   19   20 am   BACKBONE|DICT|INTERRES
    41   19   89 1    
    42   20   21 2    
    43   20   22 1    
    44   22   23 1    
    45   22   24 1    
    46   22   90 1    
    47   23   91 1    
    48   23   92 1    
    49   23   93 1    
    50   24   25 am   BACKBONE|DICT|INTERRES
    51   24   94 1    
    52   25   26 2    
    53   25   27 1    
    54   27   28 1    
    55   27   29 1    
    56   27   95 1    
    57   28   96 1    
    58   28   97 1    
    59   28   98 1    
    60   29   30 am   BACKBONE|DICT|INTERRES
    61   29   99 1    
    62   30   31 2    
    63   30   32 1    
    64   32   33 1    
    65   32   34 1    
    66   32  100 1    
    67   33  101 1    
    68   33  102 1    
    69   33  103 1    
    70   34   35 am   BACKBONE|DICT|INTERRES
    71   34  104 1    
    72   35   36 2    
    73   37   38 2    
    74   37   39 am   BACKBONE|DICT|INTERRES
    75   39   40 1    
    76   39  105 1    
    77   40   41 1    
    78   40   42 1    
    79   40  106 1    
    80   41  107 1    
    81   41  108 1    
    82   41  109 1    
    83   42   43 2    
    84   42   44 am   BACKBONE|DICT|INTERRES
    85   44   45 1    
    86   44  110 1    
    87   45   46 1    
    88   45   47 1    
    89   45  111 1    
    90   46  112 1    
    91   46  113 1    
    92   46  114 1    
    93   47   48 2    
    94   47   49 am   BACKBONE|DICT|INTERRES
    95   49   50 1    
    96   49  115 1    
    97   50   51 1    
    98   50   52 1    
    99   50  116 1    
   100   51  117 1    
   101   51  118 1    
   102   51  119 1    
   103   52   53 2    
   104   52   54 am   BACKBONE|DICT|INTERRES
   105   54   55 1    
   106   54  120 1    
   107   55   56 1    
   108   55   57 1    
   109   55  121 1    
   110   56  122 1    
   111   56  123 1    
   112   56  124 1    
   113   57   58 2    
   114   57   59 am   BACKBONE|DICT|INTERRES
   115   59   60 1    
   116   59  125 1    
   117   60   61 1    
   118   60   62 1    
   119   60  126 1    
   120   61  127 1    
   121   61  128 1    
   122   61  129 1    
   123   62   63 2    
   124   62   64 am   BACKBONE|DICT|INTERRES
   125   64   65 1    
   126   64  130 1    
   127   65   66 1    
   128   65   69 1    
   129   65  131 1    
   130   66   67 am   BACKBONE|DICT|INTERRES
   131   66   68 2    
   132   67  132 1    
   133   67  133 1    
   134   69   70 1    
   135   69  134 1    
   136   69  135 1    
   137   70   71 1    
   138   71  136 1    
   139   71  137 1    
@<TRIPOS>SUBSTRUCTURE
     1 UNK         1 GROUP             0       ****    0 ROOT    
