@<TRIPOS>MOLECULE
3R136
137   139    1
SMALL
USER_CHARGES


@<TRIPOS>ATOM
      1 CA         32.7724   22.6411   -2.9998 C.3       0 UNK        -0.1979 
      2 C          31.8157   23.8203   -2.8994 C.2       0 UNK         0.4864 
      3 O          31.6350   24.5463   -3.8787 O.2       0 UNK        -0.5359 
      4 N          31.2099   24.0195   -1.7222 N.am      1 UNK        -0.4318 
      5 CA         30.2241   25.0729   -1.4580 C.3       1 UNK         0.0824 
      6 C6         30.0302   25.3238    0.0607 C.3       12 UNK        -0.0944 
      7 S7         31.5678   25.8682    0.8742 S.3       12 UNK        -0.2672 
      8 C8         31.9502   24.4407    1.9349 C.3       12 UNK         0.0333 
      9 C9         31.1805   24.5093    3.2437 C.ar      12 UNK        -0.0807 
     10 C10        31.6620   25.3099    4.2817 C.ar      12 UNK        -0.0894 
     11 C11        30.9744   25.3957    5.4937 C.ar      12 UNK        -0.0804 
     12 C12        29.7962   24.6655    5.6667 C.ar      12 UNK        -0.0824 
     13 C13        29.2970   23.8663    4.6321 C.ar      12 UNK        -0.0762 
     14 C14        29.9980   23.7843    3.4243 C.ar      12 UNK        -0.0782 
     15 C15        27.9946   23.0987    4.8253 C.3       12 UNK         0.0230 
     16 S16        26.6292   23.7399    3.7969 S.3       12 UNK        -0.2608 
     17 C17        26.6183   25.5208    4.1993 C.3       12 UNK        -0.0989 
     18 CA         26.8630   26.3695    2.9166 C.3       5 UNK         0.0716 
     19 N          25.6479   26.5638    2.1124 N.am      5 UNK        -0.4135 
     20 C          24.4961   27.1547    2.4759 C.2       4 UNK         0.5031 
     21 O          24.2678   27.5988    3.6025 O.2       4 UNK        -0.5229 
     22 CA         23.3892   27.2784    1.4073 C.3       4 UNK         0.0329 
     23 CB         23.3800   28.6952    0.8097 C.3       4 UNK        -0.2001 
     24 N          23.5040   26.3056    0.3192 N.am      4 UNK        -0.4303 
     25 C          23.3111   24.9852    0.4439 C.2       3 UNK         0.5044 
     26 O          22.8872   24.4518    1.4697 O.2       3 UNK        -0.5152 
     27 CA         23.6680   24.1008   -0.7694 C.3       3 UNK         0.0319 
     28 CB         22.3903   23.6617   -1.5037 C.3       3 UNK        -0.2001 
     29 N          24.5978   24.6952   -1.7431 N.am      3 UNK        -0.4354 
     30 C          25.8261   25.1607   -1.4747 C.2       2 UNK         0.4964 
     31 O          26.2952   25.2407   -0.3364 O.2       2 UNK        -0.5047 
     32 CA         26.6406   25.6788   -2.6746 C.3       2 UNK         0.0288 
     33 CB         26.1324   27.0643   -3.1097 C.3       2 UNK        -0.2113 
     34 N          28.0626   25.7853   -2.3422 N.am      2 UNK        -0.4145 
     35 C          28.8665   24.7396   -2.1071 C.2       1 UNK         0.5006 
     36 O          28.5489   23.5657   -2.3234 O.2       1 UNK        -0.5103 
     37 C          27.6180   27.6875    3.2047 C.2       5 UNK         0.5055 
     38 O          27.0671   28.7813    3.0617 O.2       5 UNK        -0.5220 
     39 N          28.8980   27.5431    3.5866 N.am      6 UNK        -0.4450 
     40 CA         29.8467   28.6128    3.9323 C.3       6 UNK         0.0367 
     41 CB         29.4386   29.2948    5.2549 C.3       6 UNK        -0.1929 
     42 C          30.0948   29.6202    2.7908 C.2       6 UNK         0.5070 
     43 O          30.2442   30.8185    3.0421 O.2       6 UNK        -0.5237 
     44 N          30.1395   29.1160    1.5492 N.am      7 UNK        -0.4739 
     45 CA         30.3942   29.9036    0.3404 C.3       7 UNK         0.0276 
     46 CB         30.1792   29.0205   -0.8981 C.3       7 UNK        -0.1927 
     47 C          31.8119   30.4977    0.3437 C.2       7 UNK         0.5013 
     48 O          32.7389   29.8519    0.8357 O.2       7 UNK        -0.5193 
     49 N          31.9458   31.7248   -0.1809 N.am      8 UNK        -0.4253 
     50 CA         33.1802   32.5258   -0.2281 C.3       8 UNK         0.0242 
     51 CB         34.1866   31.9092   -1.2239 C.3       8 UNK        -0.2000 
     52 C          33.8052   32.7872    1.1617 C.2       8 UNK         0.4948 
     53 O          35.0251   32.9257    1.2667 O.2       8 UNK        -0.5275 
     54 N          32.9527   32.8420    2.1981 N.am      9 UNK        -0.4246 
     55 CA         33.2830   32.9903    3.6201 C.3       9 UNK         0.0261 
     56 CB         33.9058   34.3745    3.9053 C.3       9 UNK        -0.1959 
     57 C          34.1191   31.8221    4.1844 C.2       9 UNK         0.5033 
     58 O          34.9607   32.0396    5.0603 O.2       9 UNK        -0.5390 
     59 N          33.8680   30.5987    3.6925 N.am      10 UNK        -0.4215 
     60 CA         34.4518   29.3591    4.2136 C.3       10 UNK         0.0240 
     61 CB         34.0714   28.1884    3.2931 C.3       10 UNK        -0.1982 
     62 C          34.0333   29.0757    5.6698 C.2       10 UNK         0.4970 
     63 O          32.9791   29.5377    6.1113 O.2       10 UNK        -0.4916 
     64 N          34.8823   28.3197    6.3763 N.am      11 UNK        -0.4279 
     65 CA         34.8034   28.0066    7.8174 C.3       11 UNK         0.1003 
     66 C          35.1322   29.2046    8.7614 C.2       11 UNK         0.5709 
     67 N          35.5329   30.3678    8.2605 N.am      11 UNK        -0.7358 
     68 O          35.0593   29.0674    9.9806 O.2       11 UNK        -0.4999 
     69 C69        33.5012   27.2702    8.2556 C.3       12 UNK        -0.0954 
     70 S70        33.0957   25.8052    7.2451 S.3       12 UNK        -0.2268 
     71 C71        31.4794   26.3199    6.5899 C.3       12 UNK         0.0203 
     72 H72        33.7684   22.9881   -3.2736 H         1 UNK         0.0888 
     73 H73        32.8502   22.0975   -2.0583 H         1 UNK         0.0888 
     74 H74        32.4306   21.9453   -3.7657 H         1 UNK         0.0888 
     75 H75        31.3784   23.3782   -0.9621 H         1 UNK         0.3017 
     76 H76        30.5931   25.9933   -1.9156 H         1 UNK         0.0873 
     77 H77        29.2844   26.1026    0.2308 H         1 UNK         0.0745 
     78 H78        29.6404   24.4304    0.5511 H         1 UNK         0.0745 
     79 H79        33.0212   24.4388    2.1434 H         1 UNK         0.0705 
     80 H80        31.7436   23.5089    1.4068 H         1 UNK         0.0705 
     81 H81        32.5737   25.8730    4.1457 H         1 UNK         0.1334 
     82 H82        29.2562   24.7343    6.6015 H         1 UNK         0.1417 
     83 H83        29.6145   23.1629    2.6264 H         1 UNK         0.1562 
     84 H84        27.6845   23.1209    5.8713 H         1 UNK         0.0748 
     85 H85        28.1573   22.0482    4.5801 H         1 UNK         0.0748 
     86 H86        27.3606   25.7224    4.9707 H         1 UNK         0.0940 
     87 H87        25.6666   25.7616    4.6723 H         1 UNK         0.0940 
     88 H88        27.5354   25.8116    2.2618 H         1 UNK         0.0703 
     89 H89        25.7233   26.2059    1.1636 H         1 UNK         0.3081 
     90 H90        22.4326   27.1123    1.9076 H         1 UNK         0.0719 
     91 H91        24.3093   28.9173    0.2833 H         1 UNK         0.0809 
     92 H92        22.5547   28.8273    0.1097 H         1 UNK         0.0809 
     93 H93        23.2627   29.4468    1.5919 H         1 UNK         0.0809 
     94 H94        23.8395   26.6512   -0.5675 H         1 UNK         0.2990 
     95 H95        24.1543   23.2079   -0.3712 H         1 UNK         0.0690 
     96 H96        22.6105   22.9383   -2.2890 H         1 UNK         0.0788 
     97 H97        21.8763   24.5090   -1.9595 H         1 UNK         0.0788 
     98 H98        21.6879   23.1856   -0.8177 H         1 UNK         0.0788 
     99 H99        24.2863   24.6975   -2.7043 H         1 UNK         0.2993 
    100 H100       26.5286   24.9753   -3.5028 H         1 UNK         0.0949 
    101 H101       26.2103   27.7958   -2.3039 H         1 UNK         0.0767 
    102 H102       26.6978   27.4435   -3.9615 H         1 UNK         0.0767 
    103 H103       25.0857   27.0247   -3.4141 H         1 UNK         0.0767 
    104 H104       28.3960   26.7114   -2.1229 H         1 UNK         0.3013 
    105 H105       29.2707   26.6045    3.6549 H         1 UNK         0.3121 
    106 H106       30.8058   28.1253    4.1010 H         1 UNK         0.0774 
    107 H107       30.2137   29.9843    5.5923 H         1 UNK         0.0815 
    108 H108       28.5174   29.8679    5.1461 H         1 UNK         0.0815 
    109 H109       29.2888   28.5648    6.0499 H         1 UNK         0.0815 
    110 H110       30.0808   28.1149    1.4351 H         1 UNK         0.2987 
    111 H111       29.6677   30.7190    0.3194 H         1 UNK         0.0949 
    112 H112       30.2835   29.6029   -1.8145 H         1 UNK         0.0806 
    113 H113       30.9106   28.2134   -0.9438 H         1 UNK         0.0806 
    114 H114       29.1819   28.5813   -0.9049 H         1 UNK         0.0806 
    115 H115       31.1227   32.1759   -0.5574 H         1 UNK         0.3010 
    116 H116       32.8946   33.5055   -0.6143 H         1 UNK         0.0829 
    117 H117       33.7311   31.7481   -2.2008 H         1 UNK         0.0813 
    118 H118       35.0444   32.5661   -1.3731 H         1 UNK         0.0813 
    119 H119       34.5692   30.9512   -0.8699 H         1 UNK         0.0813 
    120 H120       31.9721   32.6911    2.0014 H         1 UNK         0.3038 
    121 H121       32.3304   32.9478    4.1506 H         1 UNK         0.0769 
    122 H122       34.0113   34.5418    4.9779 H         1 UNK         0.0811 
    123 H123       33.2834   35.1789    3.5136 H         1 UNK         0.0811 
    124 H124       34.8982   34.4715    3.4641 H         1 UNK         0.0811 
    125 H125       33.1973   30.5027    2.9396 H         1 UNK         0.3204 
    126 H126       35.5373   29.4755    4.1899 H         1 UNK         0.0748 
    127 H127       34.4743   27.2451    3.6634 H         1 UNK         0.0771 
    128 H128       32.9913   28.0764    3.2035 H         1 UNK         0.0771 
    129 H129       34.4708   28.3321    2.2889 H         1 UNK         0.0771 
    130 H130       35.7179   27.9849    5.9191 H         1 UNK         0.2980 
    131 H131       35.6232   27.3070    7.9833 H         1 UNK         0.0545 
    132 H132       35.5776   30.5152    7.2640 H         1 UNK         0.3459 
    133 H133       35.7530   31.1229    8.8903 H         1 UNK         0.3459 
    134 H134       32.6583   27.9630    8.2587 H         1 UNK         0.0616 
    135 H135       33.5976   26.9236    9.2860 H         1 UNK         0.0616 
    136 H136       31.5604   27.3272    6.1854 H         1 UNK         0.0634 
    137 H137       30.7657   26.3754    7.4133 H         1 UNK         0.0634 
@<TRIPOS>BOND
     1    1    2 1    
     2    1   72 1    
     3    1   73 1    
     4    1   74 1    
     5    2    3 2    
     6    2    4 am   BACKBONE|DICT|INTERRES
     7    4    5 1    
     8    4   75 1    
     9    5    6 1    
    10    5   35 1    
    11    5   76 1    
    12    6    7 1    
    13    6   77 1    
    14    6   78 1    
    15    7    8 1    
    16    8    9 1    
    17    8   79 1    
    18    8   80 1    
    19    9   10 ar   
    20    9   14 ar   
    21   10   11 ar   
    22   10   81 1    
    23   11   12 ar   
    24   11   71 1    
    25   12   13 ar   
    26   12   82 1    
    27   13   14 ar   
    28   13   15 1    
    29   14   83 1    
    30   15   16 1    
    31   15   84 1    
    32   15   85 1    
    33   16   17 1    
    34   17   18 1    
    35   17   86 1    
    36   17   87 1    
    37   18   19 1    
    38   18   37 1    
    39   18   88 1    
    40   19   20 am   BACKBONE|DICT|INTERRES
    41   19   89 1    
    42   20   21 2    
    43   20   22 1    
    44   22   23 1    
    45   22   24 1    
    46   22   90 1    
    47   23   91 1    
    48   23   92 1    
    49   23   93 1    
    50   24   25 am   BACKBONE|DICT|INTERRES
    51   24   94 1    
    52   25   26 2    
    53   25   27 1    
    54   27   28 1    
    55   27   29 1    
    56   27   95 1    
    57   28   96 1    
    58   28   97 1    
    59   28   98 1    
    60   29   30 am   BACKBONE|DICT|INTERRES
    61   29   99 1    
    62   30   31 2    
    63   30   32 1    
    64   32   33 1    
    65   32   34 1    
    66   32  100 1    
    67   33  101 1    
    68   33  102 1    
    69   33  103 1    
    70   34   35 am   BACKBONE|DICT|INTERRES
    71   34  104 1    
    72   35   36 2    
    73   37   38 2    
    74   37   39 am   BACKBONE|DICT|INTERRES
    75   39   40 1    
    76   39  105 1    
    77   40   41 1    
    78   40   42 1    
    79   40  106 1    
    80   41  107 1    
    81   41  108 1    
    82   41  109 1    
    83   42   43 2    
    84   42   44 am   BACKBONE|DICT|INTERRES
    85   44   45 1    
    86   44  110 1    
    87   45   46 1    
    88   45   47 1    
    89   45  111 1    
    90   46  112 1    
    91   46  113 1    
    92   46  114 1    
    93   47   48 2    
    94   47   49 am   BACKBONE|DICT|INTERRES
    95   49   50 1    
    96   49  115 1    
    97   50   51 1    
    98   50   52 1    
    99   50  116 1    
   100   51  117 1    
   101   51  118 1    
   102   51  119 1    
   103   52   53 2    
   104   52   54 am   BACKBONE|DICT|INTERRES
   105   54   55 1    
   106   54  120 1    
   107   55   56 1    
   108   55   57 1    
   109   55  121 1    
   110   56  122 1    
   111   56  123 1    
   112   56  124 1    
   113   57   58 2    
   114   57   59 am   BACKBONE|DICT|INTERRES
   115   59   60 1    
   116   59  125 1    
   117   60   61 1    
   118   60   62 1    
   119   60  126 1    
   120   61  127 1    
   121   61  128 1    
   122   61  129 1    
   123   62   63 2    
   124   62   64 am   BACKBONE|DICT|INTERRES
   125   64   65 1    
   126   64  130 1    
   127   65   66 1    
   128   65   69 1    
   129   65  131 1    
   130   66   67 am   BACKBONE|DICT|INTERRES
   131   66   68 2    
   132   67  132 1    
   133   67  133 1    
   134   69   70 1    
   135   69  134 1    
   136   69  135 1    
   137   70   71 1    
   138   71  136 1    
   139   71  137 1    
@<TRIPOS>SUBSTRUCTURE
     1 UNK         1 GROUP             0       ****    0 ROOT    
