@<TRIPOS>MOLECULE
3R136
137   139    1
SMALL
USER_CHARGES


@<TRIPOS>ATOM
      1 CA         25.6749   27.8744    4.5258 C.3       0 UNK        -0.1979 
      2 C          26.3840   26.5277    4.4960 C.2       0 UNK         0.4864 
      3 O          26.4853   25.8720    5.5337 O.2       0 UNK        -0.5359 
      4 N          26.8680   26.1184    3.3189 N.am      1 UNK        -0.4318 
      5 CA         27.4876   24.8167    3.0575 C.3       1 UNK         0.0824 
      6 C6         28.9958   24.9668    2.7122 C.3       12 UNK        -0.0944 
      7 S7         30.0087   23.5167    3.1697 S.3       12 UNK        -0.2672 
      8 C8         30.8226   23.0354    1.6051 C.3       12 UNK         0.0333 
      9 C9         31.5343   24.1910    0.9118 C.ar      12 UNK        -0.0807 
     10 C10        32.5866   24.8582    1.5467 C.ar      12 UNK        -0.0894 
     11 C11        33.2322   25.9259    0.9164 C.ar      12 UNK        -0.0804 
     12 C12        32.8144   26.3291   -0.3549 C.ar      12 UNK        -0.0824 
     13 C13        31.7610   25.6752   -1.0019 C.ar      12 UNK        -0.0762 
     14 C14        31.1397   24.5914   -0.3698 C.ar      12 UNK        -0.0782 
     15 C15        31.2984   26.1682   -2.3739 C.3       12 UNK         0.0230 
     16 S16        29.4832   26.3191   -2.5540 S.3       12 UNK        -0.2608 
     17 C17        28.9857   27.0139   -0.9414 C.3       12 UNK        -0.0989 
     18 CA         27.8308   28.0364   -1.0132 C.3       5 UNK         0.0716 
     19 N          26.6231   27.4627   -1.6107 N.am      5 UNK        -0.4135 
     20 C          25.5900   28.1884   -2.0634 C.2       4 UNK         0.5031 
     21 O          25.5715   29.4210   -2.0390 O.2       4 UNK        -0.5229 
     22 CA         24.3866   27.4358   -2.6631 C.3       4 UNK         0.0329 
     23 CB         23.8054   28.1600   -3.8925 C.3       4 UNK        -0.2001 
     24 N          24.7445   26.0692   -3.0435 N.am      4 UNK        -0.4303 
     25 C          24.1240   24.9600   -2.6273 C.2       3 UNK         0.5044 
     26 O          23.1123   24.9558   -1.9240 O.2       3 UNK        -0.5152 
     27 CA         24.7476   23.6124   -3.0414 C.3       3 UNK         0.0319 
     28 CB         25.7779   23.7130   -4.1915 C.3       3 UNK        -0.2001 
     29 N          25.3325   22.9232   -1.8852 N.am      3 UNK        -0.4354 
     30 C          26.2794   23.4017   -1.0644 C.2       2 UNK         0.4964 
     31 O          26.8276   24.4977   -1.2059 O.2       2 UNK        -0.5047 
     32 CA         26.7054   22.4726    0.0868 C.3       2 UNK         0.0288 
     33 CB         27.7182   21.4309   -0.4179 C.3       2 UNK        -0.2113 
     34 N          27.2984   23.2059    1.2081 N.am      2 UNK        -0.4145 
     35 C          26.6538   24.0876    1.9826 C.2       1 UNK         0.5006 
     36 O          25.4431   24.3114    1.8878 O.2       1 UNK        -0.5103 
     37 C          27.5482   28.5595    0.4082 C.2       5 UNK         0.5055 
     38 O          26.7261   27.9834    1.1279 O.2       5 UNK        -0.5220 
     39 N          28.3017   29.5910    0.8104 N.am      6 UNK        -0.4450 
     40 CA         28.4046   30.0534    2.1962 C.3       6 UNK         0.0367 
     41 CB         29.0859   31.4319    2.2113 C.3       6 UNK        -0.1929 
     42 C          29.1895   29.0498    3.0628 C.2       6 UNK         0.5070 
     43 O          29.9200   28.2153    2.5263 O.2       6 UNK        -0.5237 
     44 N          29.0184   29.1553    4.3868 N.am      7 UNK        -0.4739 
     45 CA         29.6537   28.2953    5.3913 C.3       7 UNK         0.0276 
     46 CB         29.0710   28.6403    6.7728 C.3       7 UNK        -0.1927 
     47 C          31.1867   28.4234    5.4228 C.2       7 UNK         0.5013 
     48 O          31.7297   29.4513    5.0130 O.2       7 UNK        -0.5193 
     49 N          31.8538   27.4116    5.9975 N.am      8 UNK        -0.4253 
     50 CA         33.3136   27.3295    6.1529 C.3       8 UNK         0.0242 
     51 CB         33.6781   26.0121    6.8544 C.3       8 UNK        -0.2000 
     52 C          33.9606   28.5251    6.8815 C.2       8 UNK         0.4948 
     53 O          35.1198   28.8399    6.6117 O.2       8 UNK        -0.5275 
     54 N          33.1922   29.1999    7.7487 N.am      9 UNK        -0.4246 
     55 CA         33.5659   30.4574    8.4002 C.3       9 UNK         0.0261 
     56 CB         32.5172   30.8028    9.4700 C.3       9 UNK        -0.1959 
     57 C          33.7436   31.6353    7.4209 C.2       9 UNK         0.5033 
     58 O          34.5325   32.5348    7.7141 O.2       9 UNK        -0.5390 
     59 N          33.0279   31.6162    6.2859 N.am      10 UNK        -0.4215 
     60 CA         33.1888   32.5790    5.1949 C.3       10 UNK         0.0240 
     61 CB         31.8630   32.7307    4.4311 C.3       10 UNK        -0.1982 
     62 C          34.3199   32.1603    4.2423 C.2       10 UNK         0.4970 
     63 O          35.0037   33.0368    3.7121 O.2       10 UNK        -0.4916 
     64 N          34.5057   30.8455    4.0481 N.am      11 UNK        -0.4279 
     65 CA         35.6217   30.2667    3.2819 C.3       11 UNK         0.1003 
     66 C          37.0080   30.5657    3.9164 C.2       11 UNK         0.5709 
     67 N          37.1634   30.3888    5.2231 N.am      11 UNK        -0.7358 
     68 O          37.9414   30.9582    3.2206 O.2       11 UNK        -0.4999 
     69 C69        35.4675   28.7404    3.0564 C.3       12 UNK        -0.0954 
     70 S70        33.9051   28.2617    2.2513 S.3       12 UNK        -0.2268 
     71 C71        34.3921   26.6357    1.5974 C.3       12 UNK         0.0203 
     72 H72        24.6451   27.7463    4.8576 H         1 UNK         0.0888 
     73 H73        25.6551   28.3476    3.5447 H         1 UNK         0.0888 
     74 H74        26.1728   28.5511    5.2182 H         1 UNK         0.0888 
     75 H75        26.7270   26.7014    2.4948 H         1 UNK         0.3017 
     76 H76        27.4056   24.1969    3.9527 H         1 UNK         0.0873 
     77 H77        29.4173   25.7926    3.2838 H         1 UNK         0.0745 
     78 H78        29.1434   25.2440    1.6701 H         1 UNK         0.0745 
     79 H79        31.5528   22.2544    1.8215 H         1 UNK         0.0705 
     80 H80        30.0880   22.5803    0.9423 H         1 UNK         0.0705 
     81 H81        32.8964   24.5477    2.5354 H         1 UNK         0.1334 
     82 H82        33.3082   27.1638   -0.8339 H         1 UNK         0.1417 
     83 H83        30.3260   24.0819   -0.8684 H         1 UNK         0.1562 
     84 H84        31.6721   25.4864   -3.1387 H         1 UNK         0.0748 
     85 H85        31.7363   27.1434   -2.5923 H         1 UNK         0.0748 
     86 H86        29.8565   27.4751   -0.4704 H         1 UNK         0.0940 
     87 H87        28.7030   26.1771   -0.3031 H         1 UNK         0.0940 
     88 H88        28.1512   28.8750   -1.6355 H         1 UNK         0.0703 
     89 H89        26.5652   26.4486   -1.5957 H         1 UNK         0.3081 
     90 H90        23.6230   27.4233   -1.8828 H         1 UNK         0.0719 
     91 H91        24.5441   28.2561   -4.6890 H         1 UNK         0.0809 
     92 H92        22.9450   27.6257   -4.2957 H         1 UNK         0.0809 
     93 H93        23.4670   29.1647   -3.6360 H         1 UNK         0.0809 
     94 H94        25.5821   25.9651   -3.5998 H         1 UNK         0.2990 
     95 H95        23.9231   22.9904   -3.3932 H         1 UNK         0.0690 
     96 H96        26.1043   22.7216   -4.5057 H         1 UNK         0.0788 
     97 H97        26.6704   24.2725   -3.9081 H         1 UNK         0.0788 
     98 H98        25.3446   24.1962   -5.0683 H         1 UNK         0.0788 
     99 H99        24.9323   22.0193   -1.6749 H         1 UNK         0.2993 
    100 H100       25.8190   21.9552    0.4605 H         1 UNK         0.0949 
    101 H101       27.2784   20.8012   -1.1924 H         1 UNK         0.0767 
    102 H102       28.6008   21.9035   -0.8509 H         1 UNK         0.0767 
    103 H103       28.0463   20.7699    0.3847 H         1 UNK         0.0767 
    104 H104       28.2874   23.0818    1.3648 H         1 UNK         0.3013 
    105 H105       28.9821   29.9690    0.1677 H         1 UNK         0.3121 
    106 H106       27.3960   30.1519    2.6036 H         1 UNK         0.0774 
    107 H107       28.5430   32.1513    1.5980 H         1 UNK         0.0815 
    108 H108       30.1107   31.3789    1.8411 H         1 UNK         0.0815 
    109 H109       29.1256   31.8386    3.2224 H         1 UNK         0.0815 
    110 H110       28.4441   29.9057    4.7410 H         1 UNK         0.2987 
    111 H111       29.4041   27.2601    5.1513 H         1 UNK         0.0949 
    112 H112       29.2736   29.6761    7.0491 H         1 UNK         0.0806 
    113 H113       27.9922   28.4901    6.8001 H         1 UNK         0.0806 
    114 H114       29.4956   28.0067    7.5526 H         1 UNK         0.0806 
    115 H115       31.3272   26.6163    6.3298 H         1 UNK         0.3010 
    116 H116       33.7332   27.3013    5.1469 H         1 UNK         0.0829 
    117 H117       33.3284   25.1493    6.2870 H         1 UNK         0.0813 
    118 H118       34.7597   25.9113    6.9572 H         1 UNK         0.0813 
    119 H119       33.2489   25.9548    7.8555 H         1 UNK         0.0813 
    120 H120       32.2567   28.8608    7.9167 H         1 UNK         0.3038 
    121 H121       34.5251   30.3002    8.8983 H         1 UNK         0.0769 
    122 H122       31.5280   30.9496    9.0344 H         1 UNK         0.0811 
    123 H123       32.7825   31.7230    9.9927 H         1 UNK         0.0811 
    124 H124       32.4417   30.0167   10.2216 H         1 UNK         0.0811 
    125 H125       32.4352   30.8145    6.0818 H         1 UNK         0.3204 
    126 H126       33.4458   33.5545    5.6136 H         1 UNK         0.0748 
    127 H127       31.0491   33.0145    5.0983 H         1 UNK         0.0771 
    128 H128       31.9421   33.5047    3.6666 H         1 UNK         0.0771 
    129 H129       31.5780   31.8074    3.9268 H         1 UNK         0.0771 
    130 H130       33.8681   30.1898    4.4780 H         1 UNK         0.2980 
    131 H131       35.6104   30.7437    2.2999 H         1 UNK         0.0545 
    132 H132       38.0556   30.5817    5.6483 H         1 UNK         0.3459 
    133 H133       36.4115   29.9861    5.7762 H         1 UNK         0.3459 
    134 H134       36.2903   28.3803    2.4356 H         1 UNK         0.0616 
    135 H135       35.5463   28.1997    3.9998 H         1 UNK         0.0616 
    136 H136       35.2082   26.7625    0.8846 H         1 UNK         0.0634 
    137 H137       34.7848   26.0268    2.4134 H         1 UNK         0.0634 
@<TRIPOS>BOND
     1    1    2 1    
     2    1   72 1    
     3    1   73 1    
     4    1   74 1    
     5    2    3 2    
     6    2    4 am   BACKBONE|DICT|INTERRES
     7    4    5 1    
     8    4   75 1    
     9    5    6 1    
    10    5   35 1    
    11    5   76 1    
    12    6    7 1    
    13    6   77 1    
    14    6   78 1    
    15    7    8 1    
    16    8    9 1    
    17    8   79 1    
    18    8   80 1    
    19    9   10 ar   
    20    9   14 ar   
    21   10   11 ar   
    22   10   81 1    
    23   11   12 ar   
    24   11   71 1    
    25   12   13 ar   
    26   12   82 1    
    27   13   14 ar   
    28   13   15 1    
    29   14   83 1    
    30   15   16 1    
    31   15   84 1    
    32   15   85 1    
    33   16   17 1    
    34   17   18 1    
    35   17   86 1    
    36   17   87 1    
    37   18   19 1    
    38   18   37 1    
    39   18   88 1    
    40   19   20 am   BACKBONE|DICT|INTERRES
    41   19   89 1    
    42   20   21 2    
    43   20   22 1    
    44   22   23 1    
    45   22   24 1    
    46   22   90 1    
    47   23   91 1    
    48   23   92 1    
    49   23   93 1    
    50   24   25 am   BACKBONE|DICT|INTERRES
    51   24   94 1    
    52   25   26 2    
    53   25   27 1    
    54   27   28 1    
    55   27   29 1    
    56   27   95 1    
    57   28   96 1    
    58   28   97 1    
    59   28   98 1    
    60   29   30 am   BACKBONE|DICT|INTERRES
    61   29   99 1    
    62   30   31 2    
    63   30   32 1    
    64   32   33 1    
    65   32   34 1    
    66   32  100 1    
    67   33  101 1    
    68   33  102 1    
    69   33  103 1    
    70   34   35 am   BACKBONE|DICT|INTERRES
    71   34  104 1    
    72   35   36 2    
    73   37   38 2    
    74   37   39 am   BACKBONE|DICT|INTERRES
    75   39   40 1    
    76   39  105 1    
    77   40   41 1    
    78   40   42 1    
    79   40  106 1    
    80   41  107 1    
    81   41  108 1    
    82   41  109 1    
    83   42   43 2    
    84   42   44 am   BACKBONE|DICT|INTERRES
    85   44   45 1    
    86   44  110 1    
    87   45   46 1    
    88   45   47 1    
    89   45  111 1    
    90   46  112 1    
    91   46  113 1    
    92   46  114 1    
    93   47   48 2    
    94   47   49 am   BACKBONE|DICT|INTERRES
    95   49   50 1    
    96   49  115 1    
    97   50   51 1    
    98   50   52 1    
    99   50  116 1    
   100   51  117 1    
   101   51  118 1    
   102   51  119 1    
   103   52   53 2    
   104   52   54 am   BACKBONE|DICT|INTERRES
   105   54   55 1    
   106   54  120 1    
   107   55   56 1    
   108   55   57 1    
   109   55  121 1    
   110   56  122 1    
   111   56  123 1    
   112   56  124 1    
   113   57   58 2    
   114   57   59 am   BACKBONE|DICT|INTERRES
   115   59   60 1    
   116   59  125 1    
   117   60   61 1    
   118   60   62 1    
   119   60  126 1    
   120   61  127 1    
   121   61  128 1    
   122   61  129 1    
   123   62   63 2    
   124   62   64 am   BACKBONE|DICT|INTERRES
   125   64   65 1    
   126   64  130 1    
   127   65   66 1    
   128   65   69 1    
   129   65  131 1    
   130   66   67 am   BACKBONE|DICT|INTERRES
   131   66   68 2    
   132   67  132 1    
   133   67  133 1    
   134   69   70 1    
   135   69  134 1    
   136   69  135 1    
   137   70   71 1    
   138   71  136 1    
   139   71  137 1    
@<TRIPOS>SUBSTRUCTURE
     1 UNK         1 GROUP             0       ****    0 ROOT    
