@<TRIPOS>MOLECULE
3R136
137   139    1
SMALL
USER_CHARGES


@<TRIPOS>ATOM
      1 CA         27.0095   27.0591    3.8785 C.3       0 UNK        -0.1979 
      2 C          27.1174   25.5427    3.9382 C.2       0 UNK         0.4864 
      3 O          26.1311   24.8686    4.2358 O.2       0 UNK        -0.5359 
      4 N          28.3104   25.0020    3.6548 N.am      1 UNK        -0.4318 
      5 CA         28.5989   23.5617    3.6326 C.3       1 UNK         0.0824 
      6 C6         30.1202   23.2857    3.7020 C.3       12 UNK        -0.0944 
      7 S7         30.8858   23.8048    5.2808 S.3       12 UNK        -0.2672 
      8 C8         31.4104   25.5326    4.9965 C.3       12 UNK         0.0333 
      9 C9         32.1187   25.7382    3.6643 C.ar      12 UNK        -0.0807 
     10 C10        33.3084   25.0584    3.3869 C.ar      12 UNK        -0.0894 
     11 C11        33.9308   25.1904    2.1421 C.ar      12 UNK        -0.0804 
     12 C12        33.3485   26.0069    1.1671 C.ar      12 UNK        -0.0824 
     13 C13        32.1703   26.7101    1.4408 C.ar      12 UNK        -0.0762 
     14 C14        31.5696   26.5857    2.6966 C.ar      12 UNK        -0.0782 
     15 C15        31.5344   27.5877    0.3730 C.3       12 UNK         0.0230 
     16 S16        30.0176   26.8195   -0.2834 S.3       12 UNK        -0.2608 
     17 C17        28.6925   27.8016    0.5048 C.3       12 UNK        -0.0989 
     18 CA         27.8869   28.6079   -0.5448 C.3       5 UNK         0.0716 
     19 N          27.2460   27.7390   -1.5312 N.am      5 UNK        -0.4135 
     20 C          26.9787   28.0915   -2.7960 C.2       4 UNK         0.5031 
     21 O          27.2460   29.2002   -3.2626 O.2       4 UNK        -0.5229 
     22 CA         26.3299   27.0392   -3.7168 C.3       4 UNK         0.0329 
     23 CB         27.3877   26.4233   -4.6476 C.3       4 UNK        -0.2001 
     24 N          25.6533   25.9622   -2.9928 N.am      4 UNK        -0.4303 
     25 C          24.4794   26.0860   -2.3590 C.2       3 UNK         0.5044 
     26 O          23.7916   27.1071   -2.3871 O.2       3 UNK        -0.5152 
     27 CA         23.9915   24.8706   -1.5451 C.3       3 UNK         0.0319 
     28 CB         22.9538   24.0701   -2.3490 C.3       3 UNK        -0.2001 
     29 N          25.0539   23.9612   -1.0902 N.am      3 UNK        -0.4354 
     30 C          26.0689   24.3062   -0.2865 C.2       2 UNK         0.4964 
     31 O          26.2747   25.4584    0.1015 O.2       2 UNK        -0.5047 
     32 CA         27.0427   23.1938    0.1141 C.3       2 UNK         0.0288 
     33 CB         28.0856   22.9560   -0.9917 C.3       2 UNK        -0.2113 
     34 N          27.7221   23.6185    1.3324 N.am      2 UNK        -0.4145 
     35 C          27.9857   22.8574    2.4006 C.2       1 UNK         0.5006 
     36 O          27.7643   21.6458    2.4462 O.2       1 UNK        -0.5103 
     37 C          26.8024   29.4752    0.1161 C.2       5 UNK         0.5055 
     38 O          25.8704   28.9321    0.7126 O.2       5 UNK        -0.5220 
     39 N          26.9378   30.8032   -0.0024 N.am      6 UNK        -0.4450 
     40 CA         25.9930   31.7858    0.5429 C.3       6 UNK         0.0367 
     41 CB         26.2807   33.1627   -0.0777 C.3       6 UNK        -0.1929 
     42 C          26.0114   31.8769    2.0801 C.2       6 UNK         0.5070 
     43 O          25.0073   32.2706    2.6744 O.2       6 UNK        -0.5237 
     44 N          27.1423   31.5145    2.6925 N.am      7 UNK        -0.4739 
     45 CA         27.3586   31.4462    4.1325 C.3       7 UNK         0.0276 
     46 CB         27.7411   32.8366    4.6725 C.3       7 UNK        -0.1927 
     47 C          28.4705   30.4260    4.3966 C.2       7 UNK         0.5013 
     48 O          29.2420   30.1131    3.4838 O.2       7 UNK        -0.5193 
     49 N          28.5380   29.9273    5.6358 N.am      8 UNK        -0.4253 
     50 CA         29.6200   29.0612    6.1005 C.3       8 UNK         0.0242 
     51 CB         29.1253   28.2040    7.2767 C.3       8 UNK        -0.2000 
     52 C          30.8377   29.9048    6.5071 C.2       8 UNK         0.4948 
     53 O          30.6723   30.9790    7.0907 O.2       8 UNK        -0.5275 
     54 N          32.0315   29.3891    6.2093 N.am      9 UNK        -0.4246 
     55 CA         33.3368   29.9857    6.4722 C.3       9 UNK         0.0261 
     56 CB         33.5799   31.1754    5.5192 C.3       9 UNK        -0.1959 
     57 C          34.3860   28.8872    6.2611 C.2       9 UNK         0.5033 
     58 O          34.0384   27.7960    5.7982 O.2       9 UNK        -0.5390 
     59 N          35.6590   29.1940    6.5419 N.am      10 UNK        -0.4215 
     60 CA         36.8148   28.3166    6.3044 C.3       10 UNK         0.0240 
     61 CB         37.9840   28.7793    7.1949 C.3       10 UNK        -0.1982 
     62 C          37.2015   28.2315    4.8093 C.2       10 UNK         0.4970 
     63 O          38.3622   28.4469    4.4560 O.2       10 UNK        -0.4916 
     64 N          36.2063   27.9420    3.9641 N.am      11 UNK        -0.4279 
     65 CA         36.2699   27.8156    2.4995 C.3       11 UNK         0.1003 
     66 C          36.6508   29.1182    1.7317 C.2       11 UNK         0.5709 
     67 N          36.5779   30.2937    2.3450 N.am      11 UNK        -0.7358 
     68 O          36.9838   29.0722    0.5496 O.2       11 UNK        -0.4999 
     69 C69        37.0756   26.5727    2.0205 C.3       12 UNK        -0.0954 
     70 S70        36.6132   25.0161    2.8580 S.3       12 UNK        -0.2268 
     71 C71        35.2157   24.4273    1.8477 C.3       12 UNK         0.0203 
     72 H72        27.9635   27.5254    3.6363 H         1 UNK         0.0888 
     73 H73        26.2867   27.3539    3.1174 H         1 UNK         0.0888 
     74 H74        26.6742   27.4515    4.8380 H         1 UNK         0.0888 
     75 H75        29.0894   25.5973    3.4235 H         1 UNK         0.3017 
     76 H76        28.1331   23.1123    4.5126 H         1 UNK         0.0873 
     77 H77        30.3067   22.2130    3.6174 H         1 UNK         0.0745 
     78 H78        30.6371   23.7331    2.8523 H         1 UNK         0.0745 
     79 H79        30.5328   26.1726    5.0750 H         1 UNK         0.0705 
     80 H80        32.0785   25.8320    5.8051 H         1 UNK         0.0705 
     81 H81        33.7420   24.4113    4.1373 H         1 UNK         0.1334 
     82 H82        33.8154   26.0979    0.1959 H         1 UNK         0.1417 
     83 H83        30.6610   27.1338    2.9019 H         1 UNK         0.1562 
     84 H84        32.2278   27.7379   -0.4559 H         1 UNK         0.0748 
     85 H85        31.3327   28.5810    0.7760 H         1 UNK         0.0748 
     86 H86        29.1175   28.4697    1.2556 H         1 UNK         0.0940 
     87 H87        28.0395   27.1197    1.0498 H         1 UNK         0.0940 
     88 H88        28.5917   29.2644   -1.0605 H         1 UNK         0.0703 
     89 H89        26.9242   26.8441   -1.1779 H         1 UNK         0.3081 
     90 H90        25.5916   27.5558   -4.3340 H         1 UNK         0.0719 
     91 H91        28.1554   25.8871   -4.0878 H         1 UNK         0.0809 
     92 H92        26.9379   25.7268   -5.3554 H         1 UNK         0.0809 
     93 H93        27.8908   27.1954   -5.2316 H         1 UNK         0.0809 
     94 H94        26.1401   25.0806   -2.9244 H         1 UNK         0.2990 
     95 H95        23.5001   25.2645   -0.6528 H         1 UNK         0.0690 
     96 H96        22.1345   24.7112   -2.6778 H         1 UNK         0.0788 
     97 H97        22.5155   23.2718   -1.7498 H         1 UNK         0.0788 
     98 H98        23.3933   23.6206   -3.2405 H         1 UNK         0.0788 
     99 H99        24.9724   22.9971   -1.3816 H         1 UNK         0.2993 
    100 H100       26.4738   22.2792    0.2960 H         1 UNK         0.0949 
    101 H101       28.7962   22.1815   -0.7023 H         1 UNK         0.0767 
    102 H102       27.6120   22.6301   -1.9185 H         1 UNK         0.0767 
    103 H103       28.6528   23.8619   -1.2123 H         1 UNK         0.0767 
    104 H104       27.8574   24.6183    1.4000 H         1 UNK         0.3013 
    105 H105       27.7222   31.1705   -0.5228 H         1 UNK         0.3121 
    106 H106       24.9855   31.4837    0.2482 H         1 UNK         0.0774 
    107 H107       27.2824   33.5167    0.1695 H         1 UNK         0.0815 
    108 H108       25.5733   33.9094    0.2862 H         1 UNK         0.0815 
    109 H109       26.1900   33.1367   -1.1638 H         1 UNK         0.0815 
    110 H110       27.9153   31.1577    2.1443 H         1 UNK         0.2987 
    111 H111       26.4451   31.0962    4.6189 H         1 UNK         0.0949 
    112 H112       26.9474   33.5633    4.4980 H         1 UNK         0.0806 
    113 H113       27.9200   32.8066    5.7481 H         1 UNK         0.0806 
    114 H114       28.6496   33.2138    4.2013 H         1 UNK         0.0806 
    115 H115       27.9048   30.2749    6.3416 H         1 UNK         0.3010 
    116 H116       29.9094   28.3949    5.2863 H         1 UNK         0.0829 
    117 H117       28.8219   28.8186    8.1253 H         1 UNK         0.0813 
    118 H118       28.2749   27.5860    6.9882 H         1 UNK         0.0813 
    119 H119       29.9094   27.5308    7.6261 H         1 UNK         0.0813 
    120 H120       32.1072   28.4726    5.7822 H         1 UNK         0.3038 
    121 H121       33.3794   30.3171    7.5117 H         1 UNK         0.0769 
    122 H122       34.5488   31.6418    5.7000 H         1 UNK         0.0811 
    123 H123       33.5557   30.8634    4.4741 H         1 UNK         0.0811 
    124 H124       32.8275   31.9532    5.6496 H         1 UNK         0.0811 
    125 H125       35.8658   30.1176    6.8950 H         1 UNK         0.3204 
    126 H126       36.5466   27.3043    6.6150 H         1 UNK         0.0748 
    127 H127       38.8428   28.1147    7.0906 H         1 UNK         0.0771 
    128 H128       38.3161   29.7854    6.9355 H         1 UNK         0.0771 
    129 H129       37.7050   28.7782    8.2488 H         1 UNK         0.0771 
    130 H130       35.2935   27.7719    4.3779 H         1 UNK         0.2980 
    131 H131       35.2349   27.6546    2.2074 H         1 UNK         0.0545 
    132 H132       36.8155   31.1303    1.8360 H         1 UNK         0.3459 
    133 H133       36.3084   30.3489    3.3129 H         1 UNK         0.3459 
    134 H134       38.1415   26.7338    2.1895 H         1 UNK         0.0616 
    135 H135       36.9598   26.4308    0.9447 H         1 UNK         0.0616 
    136 H136       35.4781   24.4856    0.7903 H         1 UNK         0.0634 
    137 H137       35.0528   23.3705    2.0634 H         1 UNK         0.0634 
@<TRIPOS>BOND
     1    1    2 1    
     2    1   72 1    
     3    1   73 1    
     4    1   74 1    
     5    2    3 2    
     6    2    4 am   BACKBONE|DICT|INTERRES
     7    4    5 1    
     8    4   75 1    
     9    5    6 1    
    10    5   35 1    
    11    5   76 1    
    12    6    7 1    
    13    6   77 1    
    14    6   78 1    
    15    7    8 1    
    16    8    9 1    
    17    8   79 1    
    18    8   80 1    
    19    9   10 ar   
    20    9   14 ar   
    21   10   11 ar   
    22   10   81 1    
    23   11   12 ar   
    24   11   71 1    
    25   12   13 ar   
    26   12   82 1    
    27   13   14 ar   
    28   13   15 1    
    29   14   83 1    
    30   15   16 1    
    31   15   84 1    
    32   15   85 1    
    33   16   17 1    
    34   17   18 1    
    35   17   86 1    
    36   17   87 1    
    37   18   19 1    
    38   18   37 1    
    39   18   88 1    
    40   19   20 am   BACKBONE|DICT|INTERRES
    41   19   89 1    
    42   20   21 2    
    43   20   22 1    
    44   22   23 1    
    45   22   24 1    
    46   22   90 1    
    47   23   91 1    
    48   23   92 1    
    49   23   93 1    
    50   24   25 am   BACKBONE|DICT|INTERRES
    51   24   94 1    
    52   25   26 2    
    53   25   27 1    
    54   27   28 1    
    55   27   29 1    
    56   27   95 1    
    57   28   96 1    
    58   28   97 1    
    59   28   98 1    
    60   29   30 am   BACKBONE|DICT|INTERRES
    61   29   99 1    
    62   30   31 2    
    63   30   32 1    
    64   32   33 1    
    65   32   34 1    
    66   32  100 1    
    67   33  101 1    
    68   33  102 1    
    69   33  103 1    
    70   34   35 am   BACKBONE|DICT|INTERRES
    71   34  104 1    
    72   35   36 2    
    73   37   38 2    
    74   37   39 am   BACKBONE|DICT|INTERRES
    75   39   40 1    
    76   39  105 1    
    77   40   41 1    
    78   40   42 1    
    79   40  106 1    
    80   41  107 1    
    81   41  108 1    
    82   41  109 1    
    83   42   43 2    
    84   42   44 am   BACKBONE|DICT|INTERRES
    85   44   45 1    
    86   44  110 1    
    87   45   46 1    
    88   45   47 1    
    89   45  111 1    
    90   46  112 1    
    91   46  113 1    
    92   46  114 1    
    93   47   48 2    
    94   47   49 am   BACKBONE|DICT|INTERRES
    95   49   50 1    
    96   49  115 1    
    97   50   51 1    
    98   50   52 1    
    99   50  116 1    
   100   51  117 1    
   101   51  118 1    
   102   51  119 1    
   103   52   53 2    
   104   52   54 am   BACKBONE|DICT|INTERRES
   105   54   55 1    
   106   54  120 1    
   107   55   56 1    
   108   55   57 1    
   109   55  121 1    
   110   56  122 1    
   111   56  123 1    
   112   56  124 1    
   113   57   58 2    
   114   57   59 am   BACKBONE|DICT|INTERRES
   115   59   60 1    
   116   59  125 1    
   117   60   61 1    
   118   60   62 1    
   119   60  126 1    
   120   61  127 1    
   121   61  128 1    
   122   61  129 1    
   123   62   63 2    
   124   62   64 am   BACKBONE|DICT|INTERRES
   125   64   65 1    
   126   64  130 1    
   127   65   66 1    
   128   65   69 1    
   129   65  131 1    
   130   66   67 am   BACKBONE|DICT|INTERRES
   131   66   68 2    
   132   67  132 1    
   133   67  133 1    
   134   69   70 1    
   135   69  134 1    
   136   69  135 1    
   137   70   71 1    
   138   71  136 1    
   139   71  137 1    
@<TRIPOS>SUBSTRUCTURE
     1 UNK         1 GROUP             0       ****    0 ROOT    
