@<TRIPOS>MOLECULE
3R136
137   139    1
SMALL
USER_CHARGES


@<TRIPOS>ATOM
      1 CA         27.1380   22.1646    0.5869 C.3       0 UNK        -0.1979 
      2 C          28.3826   22.9733    0.2587 C.2       0 UNK         0.4864 
      3 O          28.4376   24.1737    0.5377 O.2       0 UNK        -0.5359 
      4 N          29.3720   22.3167   -0.3596 N.am      1 UNK        -0.4318 
      5 CA         30.6311   22.9050   -0.8346 C.3       1 UNK         0.0824 
      6 C6         31.5487   23.4072    0.3207 C.3       12 UNK        -0.0944 
      7 S7         31.9460   22.0657    1.4915 S.3       12 UNK        -0.2672 
      8 C8         32.5337   22.9917    2.9472 C.3       12 UNK         0.0333 
      9 C9         31.4254   23.7244    3.6973 C.ar      12 UNK        -0.0807 
     10 C10        31.5687   25.0823    3.9953 C.ar      12 UNK        -0.0894 
     11 C11        30.5942   25.7601    4.7324 C.ar      12 UNK        -0.0804 
     12 C12        29.4717   25.0630    5.1872 C.ar      12 UNK        -0.0824 
     13 C13        29.2838   23.7203    4.8472 C.ar      12 UNK        -0.0762 
     14 C14        30.2737   23.0506    4.1200 C.ar      12 UNK        -0.0782 
     15 C15        28.0007   23.0004    5.2386 C.3       12 UNK         0.0230 
     16 S16        26.7410   23.1108    3.9204 S.3       12 UNK        -0.2608 
     17 C17        26.0015   24.7559    4.2026 C.3       12 UNK        -0.0989 
     18 CA         26.6605   25.8855    3.3600 C.3       5 UNK         0.0716 
     19 N          26.5198   25.7220    1.9129 N.am      5 UNK        -0.4135 
     20 C          25.4340   25.9004    1.1529 C.2       4 UNK         0.5031 
     21 O          24.3151   26.1671    1.5949 O.2       4 UNK        -0.5229 
     22 CA         25.6825   25.8095   -0.3710 C.3       4 UNK         0.0329 
     23 CB         24.4988   26.3389   -1.2081 C.3       4 UNK        -0.2001 
     24 N          26.9445   26.4611   -0.7702 N.am      4 UNK        -0.4303 
     25 C          27.2801   27.7425   -0.5484 C.2       3 UNK         0.5044 
     26 O          26.5107   28.5635   -0.0507 O.2       3 UNK        -0.5152 
     27 CA         28.7149   28.1941   -0.8690 C.3       3 UNK         0.0319 
     28 CB         29.3984   28.7322    0.3985 C.3       3 UNK        -0.2001 
     29 N          29.5651   27.1370   -1.4225 N.am      3 UNK        -0.4354 
     30 C          29.9743   27.0808   -2.6978 C.2       2 UNK         0.4964 
     31 O          29.5547   27.8251   -3.5848 O.2       2 UNK        -0.5047 
     32 CA         31.0666   26.0515   -3.0491 C.3       2 UNK         0.0288 
     33 CB         32.4250   26.7533   -3.2217 C.3       2 UNK        -0.2113 
     34 N          31.2102   24.9782   -2.0601 N.am      2 UNK        -0.4145 
     35 C          30.3577   23.9515   -1.9434 C.2       1 UNK         0.5006 
     36 O          29.3846   23.8061   -2.6896 O.2       1 UNK        -0.5103 
     37 C          26.3418   27.3020    3.8988 C.2       5 UNK         0.5055 
     38 O          26.1031   27.4406    5.1009 O.2       5 UNK        -0.5220 
     39 N          26.3995   28.3469    3.0567 N.am      6 UNK        -0.4450 
     40 CA         26.4384   29.7374    3.5228 C.3       6 UNK         0.0367 
     41 CB         26.1447   30.6961    2.3591 C.3       6 UNK        -0.1929 
     42 C          27.8168   30.0328    4.1365 C.2       6 UNK         0.5070 
     43 O          28.8286   29.5996    3.5835 O.2       6 UNK        -0.5237 
     44 N          27.8437   30.7561    5.2616 N.am      7 UNK        -0.4739 
     45 CA         29.0499   31.0417    6.0477 C.3       7 UNK         0.0276 
     46 CB         28.6341   31.3562    7.4971 C.3       7 UNK        -0.1927 
     47 C          29.9300   32.1468    5.4276 C.2       7 UNK         0.5013 
     48 O          30.1941   33.1626    6.0746 O.2       7 UNK        -0.5193 
     49 N          30.3608   31.9332    4.1824 N.am      8 UNK        -0.4253 
     50 CA         31.2713   32.7850    3.4275 C.3       8 UNK         0.0242 
     51 CB         30.4970   33.9571    2.7970 C.3       8 UNK        -0.2000 
     52 C          31.9442   31.9328    2.3481 C.2       8 UNK         0.4948 
     53 O          31.3663   30.9325    1.9169 O.2       8 UNK        -0.5275 
     54 N          33.1388   32.3558    1.9134 N.am      9 UNK        -0.4246 
     55 CA         33.9770   31.7847    0.8477 C.3       9 UNK         0.0261 
     56 CB         33.2795   31.8764   -0.5256 C.3       9 UNK        -0.1959 
     57 C          34.4832   30.3563    1.1221 C.2       9 UNK         0.5033 
     58 O          35.6957   30.1482    1.1813 O.2       9 UNK        -0.5390 
     59 N          33.5570   29.4030    1.2747 N.am      10 UNK        -0.4215 
     60 CA         33.8386   27.9915    1.5433 C.3       10 UNK         0.0240 
     61 CB         32.6202   27.1434    1.1430 C.3       10 UNK        -0.1982 
     62 C          34.2262   27.7279    3.0082 C.2       10 UNK         0.4970 
     63 O          34.9337   26.7553    3.2710 O.2       10 UNK        -0.4916 
     64 N          33.7600   28.5801    3.9274 N.am      11 UNK        -0.4279 
     65 CA         34.0659   28.5453    5.3606 C.3       11 UNK         0.1003 
     66 C          33.9156   29.9559    5.9930 C.2       11 UNK         0.5709 
     67 N          34.2690   30.1118    7.2614 N.am      11 UNK        -0.7358 
     68 O          33.4931   30.9120    5.3438 O.2       11 UNK        -0.4999 
     69 C69        33.3232   27.3999    6.1173 C.3       12 UNK        -0.0954 
     70 S70        31.5621   27.6962    6.5111 S.3       12 UNK        -0.2268 
     71 C71        30.7046   27.2596    4.9686 C.3       12 UNK         0.0203 
     72 H72        26.7980   21.6051   -0.2842 H         1 UNK         0.0888 
     73 H73        27.3480   21.4606    1.3916 H         1 UNK         0.0888 
     74 H74        26.3252   22.8142    0.9085 H         1 UNK         0.0888 
     75 H75        29.2481   21.3384   -0.5778 H         1 UNK         0.3017 
     76 H76        31.1615   22.0968   -1.3406 H         1 UNK         0.0873 
     77 H77        32.4989   23.7824   -0.0618 H         1 UNK         0.0745 
     78 H78        31.0780   24.2294    0.8626 H         1 UNK         0.0745 
     79 H79        33.0070   22.2900    3.6350 H         1 UNK         0.0705 
     80 H80        33.3164   23.6834    2.6306 H         1 UNK         0.0705 
     81 H81        32.4425   25.6135    3.6517 H         1 UNK         0.1334 
     82 H82        28.7098   25.5850    5.7505 H         1 UNK         0.1417 
     83 H83        30.1422   22.0068    3.8693 H         1 UNK         0.1562 
     84 H84        27.6046   23.3956    6.1751 H         1 UNK         0.0748 
     85 H85        28.2165   21.9473    5.4251 H         1 UNK         0.0748 
     86 H86        26.0665   24.9603    5.2723 H         1 UNK         0.0940 
     87 H87        24.9349   24.6999    3.9795 H         1 UNK         0.0940 
     88 H88        27.7349   25.8092    3.4927 H         1 UNK         0.0703 
     89 H89        27.3608   25.3992    1.4365 H         1 UNK         0.3081 
     90 H90        25.7975   24.7498   -0.6010 H         1 UNK         0.0719 
     91 H91        24.2852   27.3863   -0.9928 H         1 UNK         0.0809 
     92 H92        24.6971   26.2494   -2.2760 H         1 UNK         0.0809 
     93 H93        23.5899   25.7736   -0.9988 H         1 UNK         0.0809 
     94 H94        27.6567   25.8450   -1.1394 H         1 UNK         0.2990 
     95 H95        28.6324   29.0218   -1.5764 H         1 UNK         0.0690 
     96 H96        30.4190   29.0525    0.1916 H         1 UNK         0.0788 
     97 H97        29.4310   27.9871    1.1944 H         1 UNK         0.0788 
     98 H98        28.8734   29.6021    0.7929 H         1 UNK         0.0788 
     99 H99        29.9323   26.4631   -0.7664 H         1 UNK         0.2993 
    100 H100       30.7921   25.6059   -4.0082 H         1 UNK         0.0949 
    101 H101       32.3679   27.5311   -3.9848 H         1 UNK         0.0767 
    102 H102       32.7584   27.2291   -2.2990 H         1 UNK         0.0767 
    103 H103       33.1975   26.0515   -3.5370 H         1 UNK         0.0767 
    104 H104       32.0061   25.0309   -1.4417 H         1 UNK         0.3013 
    105 H105       26.5913   28.1948    2.0735 H         1 UNK         0.3121 
    106 H106       25.6659   29.8747    4.2826 H         1 UNK         0.0774 
    107 H107       26.0827   31.7264    2.7109 H         1 UNK         0.0815 
    108 H108       26.9243   30.6618    1.5982 H         1 UNK         0.0815 
    109 H109       25.1965   30.4579    1.8768 H         1 UNK         0.0815 
    110 H110       26.9734   31.1091    5.6337 H         1 UNK         0.2987 
    111 H111       29.6636   30.1385    6.0756 H         1 UNK         0.0949 
    112 H112       29.5090   31.5262    8.1262 H         1 UNK         0.0806 
    113 H113       28.0114   32.2498    7.5546 H         1 UNK         0.0806 
    114 H114       28.0785   30.5288    7.9389 H         1 UNK         0.0806 
    115 H115       30.0909   31.0695    3.7115 H         1 UNK         0.3010 
    116 H116       32.0414   33.1664    4.1018 H         1 UNK         0.0829 
    117 H117       30.0311   34.5826    3.5585 H         1 UNK         0.0813 
    118 H118       31.1593   34.5981    2.2139 H         1 UNK         0.0813 
    119 H119       29.7113   33.6030    2.1281 H         1 UNK         0.0813 
    120 H120       33.5317   33.1716    2.3632 H         1 UNK         0.3038 
    121 H121       34.8621   32.4214    0.7996 H         1 UNK         0.0769 
    122 H122       32.3619   31.2886   -0.5646 H         1 UNK         0.0811 
    123 H123       33.9322   31.5091   -1.3187 H         1 UNK         0.0811 
    124 H124       33.0238   32.9074   -0.7696 H         1 UNK         0.0811 
    125 H125       32.5853   29.7106    1.3012 H         1 UNK         0.3204 
    126 H126       34.6819   27.6862    0.9200 H         1 UNK         0.0748 
    127 H127       32.3467   27.3095    0.1018 H         1 UNK         0.0771 
    128 H128       32.8343   26.0805    1.2570 H         1 UNK         0.0771 
    129 H129       31.7499   27.3709    1.7589 H         1 UNK         0.0771 
    130 H130       33.2203   29.3843    3.6369 H         1 UNK         0.2980 
    131 H131       35.1348   28.3336    5.4285 H         1 UNK         0.0545 
    132 H132       34.6121   29.3374    7.8073 H         1 UNK         0.3459 
    133 H133       34.1796   31.0223    7.6836 H         1 UNK         0.3459 
    134 H134       33.4222   26.4559    5.5837 H         1 UNK         0.0616 
    135 H135       33.8250   27.2282    7.0703 H         1 UNK         0.0616 
    136 H136       29.6996   27.6764    5.0277 H         1 UNK         0.0634 
    137 H137       31.1787   27.7517    4.1202 H         1 UNK         0.0634 
@<TRIPOS>BOND
     1    1    2 1    
     2    1   72 1    
     3    1   73 1    
     4    1   74 1    
     5    2    3 2    
     6    2    4 am   BACKBONE|DICT|INTERRES
     7    4    5 1    
     8    4   75 1    
     9    5    6 1    
    10    5   35 1    
    11    5   76 1    
    12    6    7 1    
    13    6   77 1    
    14    6   78 1    
    15    7    8 1    
    16    8    9 1    
    17    8   79 1    
    18    8   80 1    
    19    9   10 ar   
    20    9   14 ar   
    21   10   11 ar   
    22   10   81 1    
    23   11   12 ar   
    24   11   71 1    
    25   12   13 ar   
    26   12   82 1    
    27   13   14 ar   
    28   13   15 1    
    29   14   83 1    
    30   15   16 1    
    31   15   84 1    
    32   15   85 1    
    33   16   17 1    
    34   17   18 1    
    35   17   86 1    
    36   17   87 1    
    37   18   19 1    
    38   18   37 1    
    39   18   88 1    
    40   19   20 am   BACKBONE|DICT|INTERRES
    41   19   89 1    
    42   20   21 2    
    43   20   22 1    
    44   22   23 1    
    45   22   24 1    
    46   22   90 1    
    47   23   91 1    
    48   23   92 1    
    49   23   93 1    
    50   24   25 am   BACKBONE|DICT|INTERRES
    51   24   94 1    
    52   25   26 2    
    53   25   27 1    
    54   27   28 1    
    55   27   29 1    
    56   27   95 1    
    57   28   96 1    
    58   28   97 1    
    59   28   98 1    
    60   29   30 am   BACKBONE|DICT|INTERRES
    61   29   99 1    
    62   30   31 2    
    63   30   32 1    
    64   32   33 1    
    65   32   34 1    
    66   32  100 1    
    67   33  101 1    
    68   33  102 1    
    69   33  103 1    
    70   34   35 am   BACKBONE|DICT|INTERRES
    71   34  104 1    
    72   35   36 2    
    73   37   38 2    
    74   37   39 am   BACKBONE|DICT|INTERRES
    75   39   40 1    
    76   39  105 1    
    77   40   41 1    
    78   40   42 1    
    79   40  106 1    
    80   41  107 1    
    81   41  108 1    
    82   41  109 1    
    83   42   43 2    
    84   42   44 am   BACKBONE|DICT|INTERRES
    85   44   45 1    
    86   44  110 1    
    87   45   46 1    
    88   45   47 1    
    89   45  111 1    
    90   46  112 1    
    91   46  113 1    
    92   46  114 1    
    93   47   48 2    
    94   47   49 am   BACKBONE|DICT|INTERRES
    95   49   50 1    
    96   49  115 1    
    97   50   51 1    
    98   50   52 1    
    99   50  116 1    
   100   51  117 1    
   101   51  118 1    
   102   51  119 1    
   103   52   53 2    
   104   52   54 am   BACKBONE|DICT|INTERRES
   105   54   55 1    
   106   54  120 1    
   107   55   56 1    
   108   55   57 1    
   109   55  121 1    
   110   56  122 1    
   111   56  123 1    
   112   56  124 1    
   113   57   58 2    
   114   57   59 am   BACKBONE|DICT|INTERRES
   115   59   60 1    
   116   59  125 1    
   117   60   61 1    
   118   60   62 1    
   119   60  126 1    
   120   61  127 1    
   121   61  128 1    
   122   61  129 1    
   123   62   63 2    
   124   62   64 am   BACKBONE|DICT|INTERRES
   125   64   65 1    
   126   64  130 1    
   127   65   66 1    
   128   65   69 1    
   129   65  131 1    
   130   66   67 am   BACKBONE|DICT|INTERRES
   131   66   68 2    
   132   67  132 1    
   133   67  133 1    
   134   69   70 1    
   135   69  134 1    
   136   69  135 1    
   137   70   71 1    
   138   71  136 1    
   139   71  137 1    
@<TRIPOS>SUBSTRUCTURE
     1 UNK         1 GROUP             0       ****    0 ROOT    
