@<TRIPOS>MOLECULE
3R136
137   139    1
SMALL
USER_CHARGES


@<TRIPOS>ATOM
      1 CA         33.3861   24.6963   -0.2184 C.3       0 UNK        -0.1979 
      2 C          32.0030   24.4271   -0.7924 C.2       0 UNK         0.4864 
      3 O          31.9009   23.8319   -1.8649 O.2       0 UNK        -0.5359 
      4 N          30.9519   24.8667   -0.0828 N.am      1 UNK        -0.4318 
      5 CA         29.5326   24.7863   -0.4570 C.3       1 UNK         0.0824 
      6 C6         28.9570   23.3459   -0.3858 C.3       12 UNK        -0.0944 
      7 S7         28.5589   22.8658    1.3264 S.3       12 UNK        -0.2672 
      8 C8         30.0670   21.9991    1.8666 C.3       12 UNK         0.0333 
      9 C9         30.7387   22.7194    3.0280 C.ar      12 UNK        -0.0807 
     10 C10        32.0474   23.1973    2.9089 C.ar      12 UNK        -0.0894 
     11 C11        32.6747   23.8332    3.9854 C.ar      12 UNK        -0.0804 
     12 C12        31.9796   23.9903    5.1884 C.ar      12 UNK        -0.0824 
     13 C13        30.6705   23.5185    5.3200 C.ar      12 UNK        -0.0762 
     14 C14        30.0587   22.8780    4.2395 C.ar      12 UNK        -0.0782 
     15 C15        29.9307   23.6805    6.6390 C.3       12 UNK         0.0230 
     16 S16        29.1864   25.3336    6.7998 S.3       12 UNK        -0.2608 
     17 C17        27.7403   25.2298    5.6869 C.3       12 UNK        -0.0989 
     18 CA         27.8524   26.1290    4.4275 C.3       5 UNK         0.0716 
     19 N          26.8489   25.7443    3.4222 N.am      5 UNK        -0.4135 
     20 C          26.6865   26.3129    2.2199 C.2       4 UNK         0.5031 
     21 O          27.4008   27.2248    1.7864 O.2       4 UNK        -0.5229 
     22 CA         25.4950   25.8259    1.3813 C.3       4 UNK         0.0329 
     23 CB         24.1538   26.1117    2.0868 C.3       4 UNK        -0.2001 
     24 N          25.5468   26.5348    0.1089 N.am      4 UNK        -0.4303 
     25 C          24.9437   26.2042   -1.0398 C.2       3 UNK         0.5044 
     26 O          24.1788   25.2490   -1.1705 O.2       3 UNK        -0.5152 
     27 CA         25.3041   27.0662   -2.2589 C.3       3 UNK         0.0319 
     28 CB         24.4496   28.3447   -2.3219 C.3       3 UNK        -0.2001 
     29 N          26.7291   27.3861   -2.2056 N.am      3 UNK        -0.4354 
     30 C          27.5264   27.6920   -3.2338 C.2       2 UNK         0.4964 
     31 O          27.1302   27.9202   -4.3768 O.2       2 UNK        -0.5047 
     32 CA         29.0388   27.7082   -2.9253 C.3       2 UNK         0.0288 
     33 CB         29.5046   29.1382   -2.6033 C.3       2 UNK        -0.2113 
     34 N          29.4144   26.8220   -1.8126 N.am      2 UNK        -0.4145 
     35 C          29.2544   25.4881   -1.8045 C.2       1 UNK         0.5006 
     36 O          28.8793   24.8408   -2.7844 O.2       1 UNK        -0.5103 
     37 C          27.7841   27.6323    4.7953 C.2       5 UNK         0.5055 
     38 O          28.8238   28.2659    4.9722 O.2       5 UNK        -0.5220 
     39 N          26.5623   28.1845    4.8604 N.am      6 UNK        -0.4450 
     40 CA         26.2994   29.6007    5.1325 C.3       6 UNK         0.0367 
     41 CB         24.7980   29.7936    5.4004 C.3       6 UNK        -0.1929 
     42 C          26.7687   30.5487    4.0124 C.2       6 UNK         0.5070 
     43 O          27.1263   31.6896    4.3059 O.2       6 UNK        -0.5237 
     44 N          26.7565   30.0739    2.7584 N.am      7 UNK        -0.4739 
     45 CA         27.2369   30.8234    1.5932 C.3       7 UNK         0.0276 
     46 CB         26.5056   30.3366    0.3328 C.3       7 UNK        -0.1927 
     47 C          28.7567   30.6917    1.4121 C.2       7 UNK         0.5013 
     48 O          29.3876   31.6103    0.8871 O.2       7 UNK        -0.5193 
     49 N          29.3218   29.5587    1.8494 N.am      8 UNK        -0.4253 
     50 CA         30.7459   29.2306    1.8002 C.3       8 UNK         0.0242 
     51 CB         30.8972   27.7067    1.9512 C.3       8 UNK        -0.2000 
     52 C          31.5565   30.0041    2.8577 C.2       8 UNK         0.4948 
     53 O          32.1531   29.3943    3.7444 O.2       8 UNK        -0.5275 
     54 N          31.5888   31.3387    2.7363 N.am      9 UNK        -0.4246 
     55 CA         32.2683   32.2690    3.6494 C.3       9 UNK         0.0261 
     56 CB         32.0533   33.7094    3.1587 C.3       9 UNK        -0.1959 
     57 C          33.7692   31.9864    3.8550 C.2       9 UNK         0.5033 
     58 O          34.2902   32.2459    4.9408 O.2       9 UNK        -0.5390 
     59 N          34.4225   31.4125    2.8341 N.am      10 UNK        -0.4215 
     60 CA         35.8055   30.9290    2.8729 C.3       10 UNK         0.0240 
     61 CB         36.2176   30.4756    1.4626 C.3       10 UNK        -0.1982 
     62 C          36.0509   29.7974    3.8915 C.2       10 UNK         0.4970 
     63 O          37.1882   29.6414    4.3382 O.2       10 UNK        -0.4916 
     64 N          35.0022   29.0428    4.2485 N.am      11 UNK        -0.4279 
     65 CA         35.0346   28.0086    5.2931 C.3       11 UNK         0.1003 
     66 C          34.9207   28.5787    6.7384 C.2       11 UNK         0.5709 
     67 N          34.7024   29.8745    6.9409 N.am      11 UNK        -0.7358 
     68 O          35.0518   27.8288    7.7031 O.2       11 UNK        -0.4999 
     69 C69        33.9795   26.8982    5.0381 C.3       12 UNK        -0.0954 
     70 S70        34.1956   26.0840    3.4173 S.3       12 UNK        -0.2268 
     71 C71        34.1121   24.3199    3.8557 C.3       12 UNK         0.0203 
     72 H72        33.9809   25.2699   -0.9287 H         1 UNK         0.0888 
     73 H73        33.3376   25.2613    0.7112 H         1 UNK         0.0888 
     74 H74        33.9037   23.7579   -0.0219 H         1 UNK         0.0888 
     75 H75        31.1291   25.3065    0.8086 H         1 UNK         0.3017 
     76 H76        28.9918   25.3811    0.2808 H         1 UNK         0.0873 
     77 H77        28.0136   23.2757   -0.9308 H         1 UNK         0.0745 
     78 H78        29.6220   22.6188   -0.8538 H         1 UNK         0.0745 
     79 H79        29.7975   20.9906    2.1832 H         1 UNK         0.0705 
     80 H80        30.7586   21.8811    1.0313 H         1 UNK         0.0705 
     81 H81        32.5862   23.0574    1.9832 H         1 UNK         0.1334 
     82 H82        32.4564   24.4755    6.0282 H         1 UNK         0.1417 
     83 H83        29.0505   22.4992    4.3368 H         1 UNK         0.1562 
     84 H84        30.6275   23.5308    7.4652 H         1 UNK         0.0748 
     85 H85        29.1623   22.9142    6.7528 H         1 UNK         0.0748 
     86 H86        26.8462   25.4787    6.2621 H         1 UNK         0.0940 
     87 H87        27.6096   24.1892    5.3883 H         1 UNK         0.0940 
     88 H88        28.8278   25.9510    3.9691 H         1 UNK         0.0703 
     89 H89        26.2224   24.9977    3.6854 H         1 UNK         0.3081 
     90 H90        25.6100   24.7546    1.2032 H         1 UNK         0.0719 
     91 H91        24.0292   27.1742    2.3007 H         1 UNK         0.0809 
     92 H92        23.3086   25.7976    1.4741 H         1 UNK         0.0809 
     93 H93        24.0738   25.5735    3.0316 H         1 UNK         0.0809 
     94 H94        26.1563   27.3405    0.1479 H         1 UNK         0.2990 
     95 H95        25.1152   26.4697   -3.1542 H         1 UNK         0.0690 
     96 H96        24.6820   28.9351   -3.2083 H         1 UNK         0.0788 
     97 H97        24.6012   28.9787   -1.4488 H         1 UNK         0.0788 
     98 H98        23.3877   28.0992   -2.3662 H         1 UNK         0.0788 
     99 H99        27.1869   27.1694   -1.3340 H         1 UNK         0.2993 
    100 H100       29.5597   27.3635   -3.8213 H         1 UNK         0.0949 
    101 H101       30.5848   29.1820   -2.4620 H         1 UNK         0.0767 
    102 H102       29.2591   29.8209   -3.4182 H         1 UNK         0.0767 
    103 H103       29.0317   29.5266   -1.7001 H         1 UNK         0.0767 
    104 H104       29.7736   27.2730   -0.9845 H         1 UNK         0.3013 
    105 H105       25.7580   27.5938    4.7096 H         1 UNK         0.3121 
    106 H106       26.8452   29.8729    6.0386 H         1 UNK         0.0774 
    107 H107       24.5748   30.8360    5.6326 H         1 UNK         0.0815 
    108 H108       24.1932   29.5168    4.5358 H         1 UNK         0.0815 
    109 H109       24.4653   29.1973    6.2502 H         1 UNK         0.0815 
    110 H110       26.4942   29.1098    2.6049 H         1 UNK         0.2987 
    111 H111       27.0096   31.8835    1.7280 H         1 UNK         0.0949 
    112 H112       26.7313   29.2947    0.1117 H         1 UNK         0.0806 
    113 H113       25.4252   30.4357    0.4388 H         1 UNK         0.0806 
    114 H114       26.8004   30.9229   -0.5388 H         1 UNK         0.0806 
    115 H115       28.7169   28.8583    2.2610 H         1 UNK         0.3010 
    116 H116       31.1309   29.5119    0.8176 H         1 UNK         0.0829 
    117 H117       30.2645   27.1819    1.2403 H         1 UNK         0.0813 
    118 H118       31.9289   27.3990    1.7781 H         1 UNK         0.0813 
    119 H119       30.6199   27.3698    2.9513 H         1 UNK         0.0813 
    120 H120       31.0242   31.7464    1.9962 H         1 UNK         0.3038 
    121 H121       31.7879   32.1650    4.6245 H         1 UNK         0.0769 
    122 H122       32.4791   33.8659    2.1668 H         1 UNK         0.0811 
    123 H123       32.5236   34.4265    3.8332 H         1 UNK         0.0811 
    124 H124       30.9929   33.9586    3.1121 H         1 UNK         0.0811 
    125 H125       33.9052   31.2396    1.9848 H         1 UNK         0.3204 
    126 H126       36.4394   31.7693    3.1636 H         1 UNK         0.0748 
    127 H127       36.1336   31.2895    0.7421 H         1 UNK         0.0771 
    128 H128       37.2556   30.1398    1.4484 H         1 UNK         0.0771 
    129 H129       35.6027   29.6466    1.1095 H         1 UNK         0.0771 
    130 H130       34.0787   29.2438    3.8756 H         1 UNK         0.2980 
    131 H131       36.0130   27.5265    5.2513 H         1 UNK         0.0545 
    132 H132       34.6403   30.2182    7.8857 H         1 UNK         0.3459 
    133 H133       34.5996   30.5165    6.1650 H         1 UNK         0.3459 
    134 H134       32.9669   27.3005    5.0910 H         1 UNK         0.0616 
    135 H135       34.0453   26.1439    5.8227 H         1 UNK         0.0616 
    136 H136       34.6264   23.7501    3.0803 H         1 UNK         0.0634 
    137 H137       34.6638   24.1341    4.7783 H         1 UNK         0.0634 
@<TRIPOS>BOND
     1    1    2 1    
     2    1   72 1    
     3    1   73 1    
     4    1   74 1    
     5    2    3 2    
     6    2    4 am   BACKBONE|DICT|INTERRES
     7    4    5 1    
     8    4   75 1    
     9    5    6 1    
    10    5   35 1    
    11    5   76 1    
    12    6    7 1    
    13    6   77 1    
    14    6   78 1    
    15    7    8 1    
    16    8    9 1    
    17    8   79 1    
    18    8   80 1    
    19    9   10 ar   
    20    9   14 ar   
    21   10   11 ar   
    22   10   81 1    
    23   11   12 ar   
    24   11   71 1    
    25   12   13 ar   
    26   12   82 1    
    27   13   14 ar   
    28   13   15 1    
    29   14   83 1    
    30   15   16 1    
    31   15   84 1    
    32   15   85 1    
    33   16   17 1    
    34   17   18 1    
    35   17   86 1    
    36   17   87 1    
    37   18   19 1    
    38   18   37 1    
    39   18   88 1    
    40   19   20 am   BACKBONE|DICT|INTERRES
    41   19   89 1    
    42   20   21 2    
    43   20   22 1    
    44   22   23 1    
    45   22   24 1    
    46   22   90 1    
    47   23   91 1    
    48   23   92 1    
    49   23   93 1    
    50   24   25 am   BACKBONE|DICT|INTERRES
    51   24   94 1    
    52   25   26 2    
    53   25   27 1    
    54   27   28 1    
    55   27   29 1    
    56   27   95 1    
    57   28   96 1    
    58   28   97 1    
    59   28   98 1    
    60   29   30 am   BACKBONE|DICT|INTERRES
    61   29   99 1    
    62   30   31 2    
    63   30   32 1    
    64   32   33 1    
    65   32   34 1    
    66   32  100 1    
    67   33  101 1    
    68   33  102 1    
    69   33  103 1    
    70   34   35 am   BACKBONE|DICT|INTERRES
    71   34  104 1    
    72   35   36 2    
    73   37   38 2    
    74   37   39 am   BACKBONE|DICT|INTERRES
    75   39   40 1    
    76   39  105 1    
    77   40   41 1    
    78   40   42 1    
    79   40  106 1    
    80   41  107 1    
    81   41  108 1    
    82   41  109 1    
    83   42   43 2    
    84   42   44 am   BACKBONE|DICT|INTERRES
    85   44   45 1    
    86   44  110 1    
    87   45   46 1    
    88   45   47 1    
    89   45  111 1    
    90   46  112 1    
    91   46  113 1    
    92   46  114 1    
    93   47   48 2    
    94   47   49 am   BACKBONE|DICT|INTERRES
    95   49   50 1    
    96   49  115 1    
    97   50   51 1    
    98   50   52 1    
    99   50  116 1    
   100   51  117 1    
   101   51  118 1    
   102   51  119 1    
   103   52   53 2    
   104   52   54 am   BACKBONE|DICT|INTERRES
   105   54   55 1    
   106   54  120 1    
   107   55   56 1    
   108   55   57 1    
   109   55  121 1    
   110   56  122 1    
   111   56  123 1    
   112   56  124 1    
   113   57   58 2    
   114   57   59 am   BACKBONE|DICT|INTERRES
   115   59   60 1    
   116   59  125 1    
   117   60   61 1    
   118   60   62 1    
   119   60  126 1    
   120   61  127 1    
   121   61  128 1    
   122   61  129 1    
   123   62   63 2    
   124   62   64 am   BACKBONE|DICT|INTERRES
   125   64   65 1    
   126   64  130 1    
   127   65   66 1    
   128   65   69 1    
   129   65  131 1    
   130   66   67 am   BACKBONE|DICT|INTERRES
   131   66   68 2    
   132   67  132 1    
   133   67  133 1    
   134   69   70 1    
   135   69  134 1    
   136   69  135 1    
   137   70   71 1    
   138   71  136 1    
   139   71  137 1    
@<TRIPOS>SUBSTRUCTURE
     1 UNK         1 GROUP             0       ****    0 ROOT    
