@<TRIPOS>MOLECULE
3R136
137   139    1
SMALL
USER_CHARGES


@<TRIPOS>ATOM
      1 CA         28.7457   23.5009   -3.1573 C.3       0 UNK        -0.1979 
      2 C          28.5236   23.8966   -1.7061 C.2       0 UNK         0.4864 
      3 O          28.1853   25.0521   -1.4415 O.2       0 UNK        -0.5359 
      4 N          28.7211   22.9475   -0.7770 N.am      1 UNK        -0.4318 
      5 CA         28.5614   23.0756    0.6783 C.3       1 UNK         0.0824 
      6 C6         28.8986   21.7379    1.3877 C.3       12 UNK        -0.0944 
      7 S7         29.0012   21.8720    3.2059 S.3       12 UNK        -0.2672 
      8 C8         30.7674   21.5686    3.5214 C.3       12 UNK         0.0333 
      9 C9         31.6012   22.8306    3.3558 C.ar      12 UNK        -0.0807 
     10 C10        31.8587   23.6459    4.4618 C.ar      12 UNK        -0.0894 
     11 C11        32.6627   24.7845    4.3464 C.ar      12 UNK        -0.0804 
     12 C12        33.2013   25.1035    3.0930 C.ar      12 UNK        -0.0824 
     13 C13        32.9351   24.3108    1.9720 C.ar      12 UNK        -0.0762 
     14 C14        32.1402   23.1695    2.1120 C.ar      12 UNK        -0.0782 
     15 C15        33.5267   24.6725    0.6143 C.3       12 UNK         0.0230 
     16 S16        32.9668   26.2945   -0.0060 S.3       12 UNK        -0.2608 
     17 C17        31.1659   26.0494   -0.1788 C.3       12 UNK        -0.0989 
     18 CA         30.3403   27.1742    0.4978 C.3       5 UNK         0.0716 
     19 N          29.0161   27.3281   -0.1146 N.am      5 UNK        -0.4135 
     20 C          28.2210   28.3925    0.0666 C.2       4 UNK         0.5031 
     21 O          28.4447   29.2736    0.8961 O.2       4 UNK        -0.5229 
     22 CA         26.9892   28.5323   -0.8352 C.3       4 UNK         0.0329 
     23 CB         27.3728   29.2138   -2.1624 C.3       4 UNK        -0.2001 
     24 N          26.3063   27.2628   -1.0950 N.am      4 UNK        -0.4303 
     25 C          24.9992   27.1788   -1.3860 C.2       3 UNK         0.5044 
     26 O          24.2472   28.1516   -1.4633 O.2       3 UNK        -0.5152 
     27 CA         24.4167   25.7793   -1.5974 C.3       3 UNK         0.0319 
     28 CB         24.8502   25.1788   -2.9469 C.3       3 UNK        -0.2001 
     29 N          24.8060   24.9153   -0.4894 N.am      3 UNK        -0.4354 
     30 C          24.1235   23.8598   -0.0380 C.2       2 UNK         0.4964 
     31 O          23.0756   23.4549   -0.5449 O.2       2 UNK        -0.5047 
     32 CA         24.7341   23.1305    1.1765 C.3       2 UNK         0.0288 
     33 CB         23.9627   21.8522    1.5562 C.3       2 UNK        -0.2113 
     34 N          26.1399   22.7850    0.9509 N.am      2 UNK        -0.4145 
     35 C          27.1731   23.6327    1.0490 C.2       1 UNK         0.5006 
     36 O          27.0553   24.8253    1.3452 O.2       1 UNK        -0.5103 
     37 C          30.3033   27.0584    2.0363 C.2       5 UNK         0.5055 
     38 O          31.2474   27.5053    2.6825 O.2       5 UNK        -0.5220 
     39 N          29.2096   26.5255    2.6051 N.am      6 UNK        -0.4450 
     40 CA         29.0134   26.4087    4.0550 C.3       6 UNK         0.0367 
     41 CB         27.7755   25.5435    4.3398 C.3       6 UNK        -0.1929 
     42 C          28.9075   27.7503    4.8089 C.2       6 UNK         0.5070 
     43 O          29.0448   27.7493    6.0334 O.2       6 UNK        -0.5237 
     44 N          28.6493   28.8607    4.1009 N.am      7 UNK        -0.4739 
     45 CA         28.6177   30.2077    4.6742 C.3       7 UNK         0.0276 
     46 CB         28.0240   31.1841    3.6464 C.3       7 UNK        -0.1927 
     47 C          30.0261   30.6633    5.0858 C.2       7 UNK         0.5013 
     48 O          30.9723   30.4713    4.3204 O.2       7 UNK        -0.5193 
     49 N          30.1397   31.3117    6.2527 N.am      8 UNK        -0.4253 
     50 CA         31.4061   31.7744    6.8398 C.3       8 UNK         0.0242 
     51 CB         31.1294   32.3798    8.2257 C.3       8 UNK        -0.2000 
     52 C          32.2036   32.7661    5.9700 C.2       8 UNK         0.4948 
     53 O          33.4244   32.8382    6.1078 O.2       8 UNK        -0.5275 
     54 N          31.5102   33.4969    5.0865 N.am      9 UNK        -0.4246 
     55 CA         32.1099   34.3865    4.0908 C.3       9 UNK         0.0261 
     56 CB         31.0472   35.3916    3.6159 C.3       9 UNK        -0.1959 
     57 C          32.7144   33.6395    2.8853 C.2       9 UNK         0.5033 
     58 O          33.5704   34.2104    2.2076 O.2       9 UNK        -0.5390 
     59 N          32.2556   32.4082    2.6189 N.am      10 UNK        -0.4215 
     60 CA         32.6985   31.5763    1.4987 C.3       10 UNK         0.0240 
     61 CB         31.4762   30.9088    0.8489 C.3       10 UNK        -0.1982 
     62 C          33.7161   30.5194    1.9518 C.2       10 UNK         0.4970 
     63 O          34.6923   30.2869    1.2376 O.2       10 UNK        -0.4916 
     64 N          33.4767   29.9087    3.1197 N.am      11 UNK        -0.4279 
     65 CA         34.3470   28.9144    3.7592 C.3       11 UNK         0.1003 
     66 C          35.7633   29.4716    4.0803 C.2       11 UNK         0.5709 
     67 N          36.8115   28.6975    3.8311 N.am      11 UNK        -0.7358 
     68 O          35.9171   30.5840    4.5807 O.2       11 UNK        -0.4999 
     69 C69        33.6576   28.3289    5.0207 C.3       12 UNK        -0.0954 
     70 S70        34.3627   26.7311    5.5599 S.3       12 UNK        -0.2268 
     71 C71        32.8980   25.6358    5.5975 C.3       12 UNK         0.0203 
     72 H72        29.1362   22.4878   -3.2501 H         1 UNK         0.0888 
     73 H73        27.8082   23.5560   -3.7092 H         1 UNK         0.0888 
     74 H74        29.4567   24.1816   -3.6246 H         1 UNK         0.0888 
     75 H75        28.9926   22.0280   -1.0945 H         1 UNK         0.3017 
     76 H76        29.2857   23.8134    1.0206 H         1 UNK         0.0873 
     77 H77        28.1687   20.9645    1.1432 H         1 UNK         0.0745 
     78 H78        29.8488   21.3570    1.0120 H         1 UNK         0.0745 
     79 H79        30.8736   21.1914    4.5397 H         1 UNK         0.0705 
     80 H80        31.1382   20.7739    2.8724 H         1 UNK         0.0705 
     81 H81        31.4346   23.3869    5.4226 H         1 UNK         0.1334 
     82 H82        33.8095   25.9851    2.9695 H         1 UNK         0.1417 
     83 H83        31.9471   22.5398    1.2547 H         1 UNK         0.1562 
     84 H84        33.2896   23.9114   -0.1308 H         1 UNK         0.0748 
     85 H85        34.6142   24.6878    0.6982 H         1 UNK         0.0748 
     86 H86        30.8811   25.0684    0.1943 H         1 UNK         0.0940 
     87 H87        30.9592   26.0281   -1.2500 H         1 UNK         0.0940 
     88 H88        30.8575   28.1110    0.2853 H         1 UNK         0.0703 
     89 H89        28.7372   26.5915   -0.7604 H         1 UNK         0.3081 
     90 H90        26.3020   29.1928   -0.3012 H         1 UNK         0.0719 
     91 H91        27.9076   30.1478   -1.9833 H         1 UNK         0.0809 
     92 H92        28.0182   28.5771   -2.7687 H         1 UNK         0.0809 
     93 H93        26.4910   29.4575   -2.7550 H         1 UNK         0.0809 
     94 H94        26.8748   26.4195   -1.0915 H         1 UNK         0.2990 
     95 H95        23.3287   25.8771   -1.5975 H         1 UNK         0.0690 
     96 H96        24.5479   25.8234   -3.7732 H         1 UNK         0.0788 
     97 H97        24.3932   24.2033   -3.1130 H         1 UNK         0.0788 
     98 H98        25.9310   25.0568   -3.0081 H         1 UNK         0.0788 
     99 H99        25.6406   25.1818    0.0255 H         1 UNK         0.2993 
    100 H100       24.6746   23.8183    2.0232 H         1 UNK         0.0949 
    101 H101       24.3911   21.3790    2.4401 H         1 UNK         0.0767 
    102 H102       22.9204   22.0777    1.7860 H         1 UNK         0.0767 
    103 H103       23.9686   21.1209    0.7469 H         1 UNK         0.0767 
    104 H104       26.3215   21.8400    0.6465 H         1 UNK         0.3013 
    105 H105       28.4599   26.1780    2.0160 H         1 UNK         0.3121 
    106 H106       29.8844   25.8900    4.4590 H         1 UNK         0.0774 
    107 H107       27.6045   25.4410    5.4122 H         1 UNK         0.0815 
    108 H108       26.8735   25.9747    3.9041 H         1 UNK         0.0815 
    109 H109       27.8961   24.5378    3.9409 H         1 UNK         0.0815 
    110 H110       28.6085   28.7972    3.0905 H         1 UNK         0.2987 
    111 H111       27.9721   30.1894    5.5550 H         1 UNK         0.0949 
    112 H112       27.9279   32.1860    4.0664 H         1 UNK         0.0806 
    113 H113       28.6503   31.2620    2.7564 H         1 UNK         0.0806 
    114 H114       27.0303   30.8695    3.3269 H         1 UNK         0.0806 
    115 H115       29.3107   31.4477    6.8138 H         1 UNK         0.3010 
    116 H116       32.0380   30.8935    6.9728 H         1 UNK         0.0829 
    117 H117       30.4706   33.2469    8.1635 H         1 UNK         0.0813 
    118 H118       30.6675   31.6521    8.8932 H         1 UNK         0.0813 
    119 H119       32.0553   32.7080    8.7006 H         1 UNK         0.0813 
    120 H120       30.5066   33.3908    5.0617 H         1 UNK         0.3038 
    121 H121       32.9177   34.9461    4.5677 H         1 UNK         0.0769 
    122 H122       30.2063   34.8934    3.1315 H         1 UNK         0.0811 
    123 H123       31.4690   36.0931    2.8945 H         1 UNK         0.0811 
    124 H124       30.6576   35.9803    4.4466 H         1 UNK         0.0811 
    125 H125       31.6127   31.9679    3.2701 H         1 UNK         0.3204 
    126 H126       33.1790   32.1970    0.7393 H         1 UNK         0.0748 
    127 H127       31.7737   30.3084   -0.0114 H         1 UNK         0.0771 
    128 H128       30.9573   30.2505    1.5472 H         1 UNK         0.0771 
    129 H129       30.7585   31.6490    0.4952 H         1 UNK         0.0771 
    130 H130       32.6094   30.1148    3.6093 H         1 UNK         0.2980 
    131 H131       34.4588   28.1157    3.0255 H         1 UNK         0.0545 
    132 H132       37.7351   29.0392    4.0447 H         1 UNK         0.3459 
    133 H133       36.6947   27.7741    3.4448 H         1 UNK         0.3459 
    134 H134       32.5949   28.1846    4.8238 H         1 UNK         0.0616 
    135 H135       33.7044   29.0343    5.8524 H         1 UNK         0.0616 
    136 H136       33.0271   24.9685    6.4509 H         1 UNK         0.0634 
    137 H137       32.0012   26.2196    5.8079 H         1 UNK         0.0634 
@<TRIPOS>BOND
     1    1    2 1    
     2    1   72 1    
     3    1   73 1    
     4    1   74 1    
     5    2    3 2    
     6    2    4 am   BACKBONE|DICT|INTERRES
     7    4    5 1    
     8    4   75 1    
     9    5    6 1    
    10    5   35 1    
    11    5   76 1    
    12    6    7 1    
    13    6   77 1    
    14    6   78 1    
    15    7    8 1    
    16    8    9 1    
    17    8   79 1    
    18    8   80 1    
    19    9   10 ar   
    20    9   14 ar   
    21   10   11 ar   
    22   10   81 1    
    23   11   12 ar   
    24   11   71 1    
    25   12   13 ar   
    26   12   82 1    
    27   13   14 ar   
    28   13   15 1    
    29   14   83 1    
    30   15   16 1    
    31   15   84 1    
    32   15   85 1    
    33   16   17 1    
    34   17   18 1    
    35   17   86 1    
    36   17   87 1    
    37   18   19 1    
    38   18   37 1    
    39   18   88 1    
    40   19   20 am   BACKBONE|DICT|INTERRES
    41   19   89 1    
    42   20   21 2    
    43   20   22 1    
    44   22   23 1    
    45   22   24 1    
    46   22   90 1    
    47   23   91 1    
    48   23   92 1    
    49   23   93 1    
    50   24   25 am   BACKBONE|DICT|INTERRES
    51   24   94 1    
    52   25   26 2    
    53   25   27 1    
    54   27   28 1    
    55   27   29 1    
    56   27   95 1    
    57   28   96 1    
    58   28   97 1    
    59   28   98 1    
    60   29   30 am   BACKBONE|DICT|INTERRES
    61   29   99 1    
    62   30   31 2    
    63   30   32 1    
    64   32   33 1    
    65   32   34 1    
    66   32  100 1    
    67   33  101 1    
    68   33  102 1    
    69   33  103 1    
    70   34   35 am   BACKBONE|DICT|INTERRES
    71   34  104 1    
    72   35   36 2    
    73   37   38 2    
    74   37   39 am   BACKBONE|DICT|INTERRES
    75   39   40 1    
    76   39  105 1    
    77   40   41 1    
    78   40   42 1    
    79   40  106 1    
    80   41  107 1    
    81   41  108 1    
    82   41  109 1    
    83   42   43 2    
    84   42   44 am   BACKBONE|DICT|INTERRES
    85   44   45 1    
    86   44  110 1    
    87   45   46 1    
    88   45   47 1    
    89   45  111 1    
    90   46  112 1    
    91   46  113 1    
    92   46  114 1    
    93   47   48 2    
    94   47   49 am   BACKBONE|DICT|INTERRES
    95   49   50 1    
    96   49  115 1    
    97   50   51 1    
    98   50   52 1    
    99   50  116 1    
   100   51  117 1    
   101   51  118 1    
   102   51  119 1    
   103   52   53 2    
   104   52   54 am   BACKBONE|DICT|INTERRES
   105   54   55 1    
   106   54  120 1    
   107   55   56 1    
   108   55   57 1    
   109   55  121 1    
   110   56  122 1    
   111   56  123 1    
   112   56  124 1    
   113   57   58 2    
   114   57   59 am   BACKBONE|DICT|INTERRES
   115   59   60 1    
   116   59  125 1    
   117   60   61 1    
   118   60   62 1    
   119   60  126 1    
   120   61  127 1    
   121   61  128 1    
   122   61  129 1    
   123   62   63 2    
   124   62   64 am   BACKBONE|DICT|INTERRES
   125   64   65 1    
   126   64  130 1    
   127   65   66 1    
   128   65   69 1    
   129   65  131 1    
   130   66   67 am   BACKBONE|DICT|INTERRES
   131   66   68 2    
   132   67  132 1    
   133   67  133 1    
   134   69   70 1    
   135   69  134 1    
   136   69  135 1    
   137   70   71 1    
   138   71  136 1    
   139   71  137 1    
@<TRIPOS>SUBSTRUCTURE
     1 UNK         1 GROUP             0       ****    0 ROOT    
