@<TRIPOS>MOLECULE
3R136
137   139    1
SMALL
USER_CHARGES


@<TRIPOS>ATOM
      1 CA         34.5784   22.1521   -0.9438 C.3       0 UNK        -0.1979 
      2 C          33.3068   22.6037   -1.6472 C.2       0 UNK         0.4864 
      3 O          33.2955   22.7273   -2.8731 O.2       0 UNK        -0.5359 
      4 N          32.2392   22.8425   -0.8811 N.am      1 UNK        -0.4318 
      5 CA         30.9266   23.2801   -1.3520 C.3       1 UNK         0.0824 
      6 C6         30.8800   24.7669   -1.8240 C.3       12 UNK        -0.0944 
      7 S7         31.7381   25.9849   -0.7657 S.3       12 UNK        -0.2672 
      8 C8         30.4574   26.4733    0.4421 C.3       12 UNK         0.0333 
      9 C9         30.4639   25.6700    1.7410 C.ar      12 UNK        -0.0807 
     10 C10        31.6382   25.1134    2.2599 C.ar      12 UNK        -0.0894 
     11 C11        31.6287   24.4300    3.4758 C.ar      12 UNK        -0.0804 
     12 C12        30.4339   24.3156    4.1905 C.ar      12 UNK        -0.0824 
     13 C13        29.2502   24.8763    3.7007 C.ar      12 UNK        -0.0762 
     14 C14        29.2748   25.5337    2.4626 C.ar      12 UNK        -0.0782 
     15 C15        27.9767   24.7202    4.5347 C.3       12 UNK         0.0230 
     16 S16        26.5940   25.8305    4.0982 S.3       12 UNK        -0.2608 
     17 C17        27.1325   27.4518    4.7610 C.3       12 UNK        -0.0989 
     18 CA         27.7731   28.3889    3.7006 C.3       5 UNK         0.0716 
     19 N          27.0273   28.3990    2.4457 N.am      5 UNK        -0.4135 
     20 C          27.4624   28.8577    1.2688 C.2       4 UNK         0.5031 
     21 O          28.5640   29.3942    1.1138 O.2       4 UNK        -0.5229 
     22 CA         26.5155   28.6588    0.0648 C.3       4 UNK         0.0329 
     23 CB         27.2298   28.8541   -1.2846 C.3       4 UNK        -0.2001 
     24 N          25.8735   27.3388    0.0632 N.am      4 UNK        -0.4303 
     25 C          24.8383   26.9532    0.8189 C.2       3 UNK         0.5044 
     26 O          24.2744   27.7011    1.6177 O.2       3 UNK        -0.5152 
     27 CA         24.3884   25.4836    0.7194 C.3       3 UNK         0.0319 
     28 CB         23.5146   25.2509   -0.5288 C.3       3 UNK        -0.2001 
     29 N          25.4791   24.4983    0.8143 N.am      3 UNK        -0.4354 
     30 C          26.4775   24.2727   -0.0503 C.2       2 UNK         0.4964 
     31 O          26.6425   24.9079   -1.0969 O.2       2 UNK        -0.5047 
     32 CA         27.4619   23.1545    0.3156 C.3       2 UNK         0.0288 
     33 CB         26.8253   21.7633    0.1440 C.3       2 UNK        -0.2113 
     34 N          28.6160   23.2824   -0.5656 N.am      2 UNK        -0.4145 
     35 C          29.8725   22.9256   -0.2873 C.2       1 UNK         0.5006 
     36 O          30.2067   22.3304    0.7417 O.2       1 UNK        -0.5103 
     37 C          27.9073   29.8323    4.2149 C.2       5 UNK         0.5055 
     38 O          26.8888   30.4887    4.4427 O.2       5 UNK        -0.5220 
     39 N          29.1544   30.3037    4.3344 N.am      6 UNK        -0.4450 
     40 CA         29.5692   31.6798    4.6320 C.3       6 UNK         0.0367 
     41 CB         29.0369   32.1625    5.9977 C.3       6 UNK        -0.1929 
     42 C          29.2973   32.6793    3.4895 C.2       6 UNK         0.5070 
     43 O          29.4262   33.8844    3.7091 O.2       6 UNK        -0.5237 
     44 N          28.9733   32.1777    2.2894 N.am      7 UNK        -0.4739 
     45 CA         28.8404   32.9644    1.0632 C.3       7 UNK         0.0276 
     46 CB         27.4611   32.7229    0.4264 C.3       7 UNK        -0.1927 
     47 C          29.9794   32.6142    0.0976 C.2       7 UNK         0.5013 
     48 O          30.7045   33.5151   -0.3257 O.2       7 UNK        -0.5193 
     49 N          30.1375   31.3188   -0.2110 N.am      8 UNK        -0.4253 
     50 CA         31.2287   30.8013   -1.0405 C.3       8 UNK         0.0242 
     51 CB         30.7371   29.5942   -1.8541 C.3       8 UNK        -0.2000 
     52 C          32.4605   30.4326   -0.1989 C.2       8 UNK         0.4948 
     53 O          33.5836   30.6542   -0.6538 O.2       8 UNK        -0.5275 
     54 N          32.2392   29.9042    1.0113 N.am      9 UNK        -0.4246 
     55 CA         33.2705   29.5655    1.9881 C.3       9 UNK         0.0261 
     56 CB         33.9242   28.2171    1.6423 C.3       9 UNK        -0.1959 
     57 C          32.6187   29.5163    3.3708 C.2       9 UNK         0.5033 
     58 O          31.4666   29.0882    3.4811 O.2       9 UNK        -0.5390 
     59 N          33.3567   29.9575    4.3942 N.am      10 UNK        -0.4215 
     60 CA         32.9057   30.0384    5.7825 C.3       10 UNK         0.0240 
     61 CB         33.2210   31.4449    6.3300 C.3       10 UNK        -0.1982 
     62 C          33.5719   28.9275    6.6050 C.2       10 UNK         0.4970 
     63 O          34.4925   29.1992    7.3782 O.2       10 UNK        -0.4916 
     64 N          33.1040   27.6899    6.4088 N.am      11 UNK        -0.4279 
     65 CA         33.5560   26.5063    7.1616 C.3       11 UNK         0.1003 
     66 C          33.0783   26.4583    8.6438 C.2       11 UNK         0.5709 
     67 N          32.1118   27.2677    9.0622 N.am      11 UNK        -0.7358 
     68 O          33.6026   25.6742    9.4313 O.2       11 UNK        -0.4999 
     69 C69        33.1956   25.1889    6.4311 C.3       12 UNK        -0.0954 
     70 S70        33.9808   25.0577    4.7922 S.3       12 UNK        -0.2268 
     71 C71        32.9156   23.8137    4.0016 C.3       12 UNK         0.0203 
     72 H72        34.8776   21.1679   -1.3030 H         1 UNK         0.0888 
     73 H73        35.3882   22.8518   -1.1487 H         1 UNK         0.0888 
     74 H74        34.4470   22.0941    0.1367 H         1 UNK         0.0888 
     75 H75        32.2652   22.6716    0.1167 H         1 UNK         0.3017 
     76 H76        30.6727   22.6554   -2.2113 H         1 UNK         0.0873 
     77 H77        31.3711   24.8241   -2.7965 H         1 UNK         0.0745 
     78 H78        29.8623   25.1088   -2.0168 H         1 UNK         0.0745 
     79 H79        29.4758   26.4343   -0.0323 H         1 UNK         0.0705 
     80 H80        30.6264   27.5152    0.7129 H         1 UNK         0.0705 
     81 H81        32.5720   25.2077    1.7252 H         1 UNK         0.1334 
     82 H82        30.4254   23.7866    5.1337 H         1 UNK         0.1417 
     83 H83        28.3703   25.9603    2.0563 H         1 UNK         0.1562 
     84 H84        28.2080   24.8532    5.5928 H         1 UNK         0.0748 
     85 H85        27.6285   23.6924    4.4252 H         1 UNK         0.0748 
     86 H86        27.8231   27.2956    5.5916 H         1 UNK         0.0940 
     87 H87        26.2463   27.9193    5.1954 H         1 UNK         0.0940 
     88 H88        28.7741   28.0116    3.4829 H         1 UNK         0.0703 
     89 H89        26.0823   28.0347    2.4881 H         1 UNK         0.3081 
     90 H90        25.7390   29.4220    0.1459 H         1 UNK         0.0719 
     91 H91        28.0175   28.1148   -1.4315 H         1 UNK         0.0809 
     92 H92        26.5314   28.7646   -2.1168 H         1 UNK         0.0809 
     93 H93        27.6851   29.8418   -1.3569 H         1 UNK         0.0809 
     94 H94        26.2827   26.6280   -0.5393 H         1 UNK         0.2990 
     95 H95        23.7581   25.2972    1.5907 H         1 UNK         0.0690 
     96 H96        23.1339   24.2300   -0.5606 H         1 UNK         0.0788 
     97 H97        24.0611   25.4333   -1.4545 H         1 UNK         0.0788 
     98 H98        22.6517   25.9182   -0.5278 H         1 UNK         0.0788 
     99 H99        25.4609   23.9397    1.6569 H         1 UNK         0.2993 
    100 H100       27.7772   23.2931    1.3522 H         1 UNK         0.0949 
    101 H101       26.4842   21.6007   -0.8794 H         1 UNK         0.0767 
    102 H102       27.5337   20.9717    0.3894 H         1 UNK         0.0767 
    103 H103       25.9637   21.6384    0.8008 H         1 UNK         0.0767 
    104 H104       28.4141   23.8056   -1.4093 H         1 UNK         0.3013 
    105 H105       29.9263   29.6903    4.0625 H         1 UNK         0.3121 
    106 H106       30.6545   31.6414    4.7084 H         1 UNK         0.0774 
    107 H107       29.5011   33.1067    6.2850 H         1 UNK         0.0815 
    108 H108       27.9595   32.3269    5.9805 H         1 UNK         0.0815 
    109 H109       29.2568   31.4430    6.7862 H         1 UNK         0.0815 
    110 H110       28.8940   31.1723    2.1913 H         1 UNK         0.2987 
    111 H111       28.9183   34.0318    1.2819 H         1 UNK         0.0949 
    112 H112       27.3524   33.2967   -0.4949 H         1 UNK         0.0806 
    113 H113       27.2971   31.6759    0.1786 H         1 UNK         0.0806 
    114 H114       26.6603   33.0336    1.0975 H         1 UNK         0.0806 
    115 H115       29.5067   30.6311    0.1968 H         1 UNK         0.3010 
    116 H116       31.5393   31.5694   -1.7524 H         1 UNK         0.0829 
    117 H117       29.9565   29.8844   -2.5571 H         1 UNK         0.0813 
    118 H118       31.5491   29.1549   -2.4354 H         1 UNK         0.0813 
    119 H119       30.3355   28.8115   -1.2136 H         1 UNK         0.0813 
    120 H120       31.2917   29.7549    1.3352 H         1 UNK         0.3038 
    121 H121       34.0306   30.3498    1.9848 H         1 UNK         0.0769 
    122 H122       34.6741   27.9389    2.3838 H         1 UNK         0.0811 
    123 H123       34.4202   28.2487    0.6723 H         1 UNK         0.0811 
    124 H124       33.1844   27.4196    1.6113 H         1 UNK         0.0811 
    125 H125       34.3124   30.2382    4.2217 H         1 UNK         0.3204 
    126 H126       31.8263   29.8896    5.8516 H         1 UNK         0.0748 
    127 H127       32.8890   31.5436    7.3644 H         1 UNK         0.0771 
    128 H128       34.2900   31.6608    6.3082 H         1 UNK         0.0771 
    129 H129       32.7170   32.2208    5.7543 H         1 UNK         0.0771 
    130 H130       32.3760   27.5369    5.7258 H         1 UNK         0.2980 
    131 H131       34.6456   26.5557    7.2119 H         1 UNK         0.0545 
    132 H132       31.8187   27.2263   10.0256 H         1 UNK         0.3459 
    133 H133       31.6702   27.9122    8.4278 H         1 UNK         0.3459 
    134 H134       32.1133   25.1073    6.3268 H         1 UNK         0.0616 
    135 H135       33.5155   24.3216    7.0118 H         1 UNK         0.0616 
    136 H136       32.7037   23.0073    4.7055 H         1 UNK         0.0634 
    137 H137       33.4631   23.3594    3.1744 H         1 UNK         0.0634 
@<TRIPOS>BOND
     1    1    2 1    
     2    1   72 1    
     3    1   73 1    
     4    1   74 1    
     5    2    3 2    
     6    2    4 am   BACKBONE|DICT|INTERRES
     7    4    5 1    
     8    4   75 1    
     9    5    6 1    
    10    5   35 1    
    11    5   76 1    
    12    6    7 1    
    13    6   77 1    
    14    6   78 1    
    15    7    8 1    
    16    8    9 1    
    17    8   79 1    
    18    8   80 1    
    19    9   10 ar   
    20    9   14 ar   
    21   10   11 ar   
    22   10   81 1    
    23   11   12 ar   
    24   11   71 1    
    25   12   13 ar   
    26   12   82 1    
    27   13   14 ar   
    28   13   15 1    
    29   14   83 1    
    30   15   16 1    
    31   15   84 1    
    32   15   85 1    
    33   16   17 1    
    34   17   18 1    
    35   17   86 1    
    36   17   87 1    
    37   18   19 1    
    38   18   37 1    
    39   18   88 1    
    40   19   20 am   BACKBONE|DICT|INTERRES
    41   19   89 1    
    42   20   21 2    
    43   20   22 1    
    44   22   23 1    
    45   22   24 1    
    46   22   90 1    
    47   23   91 1    
    48   23   92 1    
    49   23   93 1    
    50   24   25 am   BACKBONE|DICT|INTERRES
    51   24   94 1    
    52   25   26 2    
    53   25   27 1    
    54   27   28 1    
    55   27   29 1    
    56   27   95 1    
    57   28   96 1    
    58   28   97 1    
    59   28   98 1    
    60   29   30 am   BACKBONE|DICT|INTERRES
    61   29   99 1    
    62   30   31 2    
    63   30   32 1    
    64   32   33 1    
    65   32   34 1    
    66   32  100 1    
    67   33  101 1    
    68   33  102 1    
    69   33  103 1    
    70   34   35 am   BACKBONE|DICT|INTERRES
    71   34  104 1    
    72   35   36 2    
    73   37   38 2    
    74   37   39 am   BACKBONE|DICT|INTERRES
    75   39   40 1    
    76   39  105 1    
    77   40   41 1    
    78   40   42 1    
    79   40  106 1    
    80   41  107 1    
    81   41  108 1    
    82   41  109 1    
    83   42   43 2    
    84   42   44 am   BACKBONE|DICT|INTERRES
    85   44   45 1    
    86   44  110 1    
    87   45   46 1    
    88   45   47 1    
    89   45  111 1    
    90   46  112 1    
    91   46  113 1    
    92   46  114 1    
    93   47   48 2    
    94   47   49 am   BACKBONE|DICT|INTERRES
    95   49   50 1    
    96   49  115 1    
    97   50   51 1    
    98   50   52 1    
    99   50  116 1    
   100   51  117 1    
   101   51  118 1    
   102   51  119 1    
   103   52   53 2    
   104   52   54 am   BACKBONE|DICT|INTERRES
   105   54   55 1    
   106   54  120 1    
   107   55   56 1    
   108   55   57 1    
   109   55  121 1    
   110   56  122 1    
   111   56  123 1    
   112   56  124 1    
   113   57   58 2    
   114   57   59 am   BACKBONE|DICT|INTERRES
   115   59   60 1    
   116   59  125 1    
   117   60   61 1    
   118   60   62 1    
   119   60  126 1    
   120   61  127 1    
   121   61  128 1    
   122   61  129 1    
   123   62   63 2    
   124   62   64 am   BACKBONE|DICT|INTERRES
   125   64   65 1    
   126   64  130 1    
   127   65   66 1    
   128   65   69 1    
   129   65  131 1    
   130   66   67 am   BACKBONE|DICT|INTERRES
   131   66   68 2    
   132   67  132 1    
   133   67  133 1    
   134   69   70 1    
   135   69  134 1    
   136   69  135 1    
   137   70   71 1    
   138   71  136 1    
   139   71  137 1    
@<TRIPOS>SUBSTRUCTURE
     1 UNK         1 GROUP             0       ****    0 ROOT    
