@<TRIPOS>MOLECULE
3R136
137   139    1
SMALL
USER_CHARGES


@<TRIPOS>ATOM
      1 CA         26.3422   23.4198    5.5860 C.3       0 UNK        -0.1979 
      2 C          26.4152   22.5960    4.3085 C.2       0 UNK         0.4864 
      3 O          25.7603   21.5569    4.2100 O.2       0 UNK        -0.5359 
      4 N          27.2150   23.0490    3.3361 N.am      1 UNK        -0.4318 
      5 CA         27.3681   22.4300    2.0170 C.3       1 UNK         0.0824 
      6 C6         28.6538   22.9291    1.3099 C.3       12 UNK        -0.0944 
      7 S7         30.1492   22.1278    1.9777 S.3       12 UNK        -0.2672 
      8 C8         30.7275   23.3358    3.2200 C.3       12 UNK         0.0333 
      9 C9         31.3723   24.6180    2.6877 C.ar      12 UNK        -0.0807 
     10 C10        31.7776   25.5746    3.6241 C.ar      12 UNK        -0.0894 
     11 C11        32.3863   26.7644    3.2199 C.ar      12 UNK        -0.0804 
     12 C12        32.5860   27.0040    1.8591 C.ar      12 UNK        -0.0824 
     13 C13        32.1918   26.0614    0.9062 C.ar      12 UNK        -0.0762 
     14 C14        31.5882   24.8708    1.3243 C.ar      12 UNK        -0.0782 
     15 C15        32.4472   26.3199   -0.5732 C.3       12 UNK         0.0230 
     16 S16        30.9419   26.8080   -1.4769 S.3       12 UNK        -0.2608 
     17 C17        30.5185   28.4089   -0.6947 C.3       12 UNK        -0.0989 
     18 CA         29.0273   28.5679   -0.3023 C.3       5 UNK         0.0716 
     19 N          28.1571   28.4408   -1.4678 N.am      5 UNK        -0.4135 
     20 C          27.0127   29.1081   -1.6583 C.2       4 UNK         0.5031 
     21 O          26.6191   30.0236   -0.9339 O.2       4 UNK        -0.5229 
     22 CA         26.1520   28.6717   -2.8598 C.3       4 UNK         0.0329 
     23 CB         26.5164   29.4877   -4.1107 C.3       4 UNK        -0.2001 
     24 N          26.2746   27.2399   -3.1565 N.am      4 UNK        -0.4303 
     25 C          25.8266   26.2660   -2.3520 C.2       3 UNK         0.5044 
     26 O          25.1640   26.4727   -1.3315 O.2       3 UNK        -0.5152 
     27 CA         26.1902   24.8297   -2.7541 C.3       3 UNK         0.0319 
     28 CB         27.7182   24.6202   -2.8058 C.3       3 UNK        -0.2001 
     29 N          25.6107   23.9100   -1.7815 N.am      3 UNK        -0.4354 
     30 C          25.2903   22.6312   -1.9919 C.2       2 UNK         0.4964 
     31 O          25.4334   22.0584   -3.0740 O.2       2 UNK        -0.5047 
     32 CA         24.7681   21.8590   -0.7658 C.3       2 UNK         0.0288 
     33 CB         24.2657   20.4461   -1.1198 C.3       2 UNK        -0.2113 
     34 N          25.8213   21.7494    0.2465 N.am      2 UNK        -0.4145 
     35 C          26.1268   22.6971    1.1431 C.2       1 UNK         0.5006 
     36 O          25.5006   23.7544    1.2573 O.2       1 UNK        -0.5103 
     37 C          28.5748   27.5568    0.7719 C.2       5 UNK         0.5055 
     38 O          28.1711   26.4440    0.4275 O.2       5 UNK        -0.5220 
     39 N          28.6534   27.9576    2.0460 N.am      6 UNK        -0.4450 
     40 CA         28.2925   27.1455    3.2117 C.3       6 UNK         0.0367 
     41 CB         26.7886   26.7956    3.2311 C.3       6 UNK        -0.1929 
     42 C          28.6779   27.8728    4.5034 C.2       6 UNK         0.5070 
     43 O          29.2061   27.2414    5.4183 O.2       6 UNK        -0.5237 
     44 N          28.4053   29.1857    4.5573 N.am      7 UNK        -0.4739 
     45 CA         28.7758   30.0657    5.6681 C.3       7 UNK         0.0276 
     46 CB         28.0868   31.4276    5.4863 C.3       7 UNK        -0.1927 
     47 C          30.2986   30.2472    5.7472 C.2       7 UNK         0.5013 
     48 O          30.9394   30.3971    4.7042 O.2       7 UNK        -0.5193 
     49 N          30.8372   30.2667    6.9753 N.am      8 UNK        -0.4253 
     50 CA         32.2726   30.2895    7.2936 C.3       8 UNK         0.0242 
     51 CB         32.4562   30.3649    8.8175 C.3       8 UNK        -0.2000 
     52 C          33.0871   31.3971    6.6045 C.2       8 UNK         0.4948 
     53 O          34.2571   31.1766    6.2955 O.2       8 UNK        -0.5275 
     54 N          32.4524   32.5409    6.3144 N.am      9 UNK        -0.4246 
     55 CA         33.0265   33.6511    5.5472 C.3       9 UNK         0.0261 
     56 CB         32.0036   34.7969    5.4827 C.3       9 UNK        -0.1959 
     57 C          33.4962   33.2706    4.1272 C.2       9 UNK         0.5033 
     58 O          34.3667   33.9546    3.5871 O.2       9 UNK        -0.5390 
     59 N          32.9362   32.1953    3.5534 N.am      10 UNK        -0.4215 
     60 CA         33.3060   31.6702    2.2395 C.3       10 UNK         0.0240 
     61 CB         32.0649   31.0277    1.5939 C.3       10 UNK        -0.1982 
     62 C          34.4856   30.6770    2.2726 C.2       10 UNK         0.4970 
     63 O          34.8773   30.2181    1.1984 O.2       10 UNK        -0.4916 
     64 N          35.0222   30.3331    3.4545 N.am      11 UNK        -0.4279 
     65 CA         36.1028   29.3392    3.5972 C.3       11 UNK         0.1003 
     66 C          37.1281   29.6179    4.7307 C.2       11 UNK         0.5709 
     67 N          36.8555   30.4823    5.6980 N.am      11 UNK        -0.7358 
     68 O          38.2225   29.0586    4.7115 O.2       11 UNK        -0.4999 
     69 C69        35.5756   27.8766    3.6010 C.3       12 UNK        -0.0954 
     70 S70        34.4387   27.4785    4.9771 S.3       12 UNK        -0.2268 
     71 C71        32.7981   27.8005    4.2543 C.3       12 UNK         0.0203 
     72 H72        25.3533   23.8659    5.6881 H         1 UNK         0.0888 
     73 H73        26.5215   22.7849    6.4533 H         1 UNK         0.0888 
     74 H74        27.0813   24.2210    5.5980 H         1 UNK         0.0888 
     75 H75        27.6918   23.9287    3.4569 H         1 UNK         0.3017 
     76 H76        27.4416   21.3489    2.1581 H         1 UNK         0.0873 
     77 H77        28.6311   22.6967    0.2430 H         1 UNK         0.0745 
     78 H78        28.7437   24.0149    1.3738 H         1 UNK         0.0745 
     79 H79        29.8965   23.5969    3.8754 H         1 UNK         0.0705 
     80 H80        31.4599   22.8289    3.8499 H         1 UNK         0.0705 
     81 H81        31.6168   25.3953    4.6789 H         1 UNK         0.1334 
     82 H82        33.0551   27.9249    1.5409 H         1 UNK         0.1417 
     83 H83        31.2918   24.1510    0.5752 H         1 UNK         0.1562 
     84 H84        32.8519   25.4162   -1.0310 H         1 UNK         0.0748 
     85 H85        33.2081   27.0911   -0.7049 H         1 UNK         0.0748 
     86 H86        30.7935   29.2001   -1.3939 H         1 UNK         0.0940 
     87 H87        31.1449   28.5743    0.1795 H         1 UNK         0.0940 
     88 H88        28.9084   29.5716    0.1121 H         1 UNK         0.0703 
     89 H89        28.3725   27.6663   -2.0773 H         1 UNK         0.3081 
     90 H90        25.1089   28.8779   -2.6099 H         1 UNK         0.0719 
     91 H91        26.4101   30.5570   -3.9221 H         1 UNK         0.0809 
     92 H92        25.8639   29.2425   -4.9490 H         1 UNK         0.0809 
     93 H93        27.5468   29.3133   -4.4233 H         1 UNK         0.0809 
     94 H94        26.7820   26.9890   -3.9932 H         1 UNK         0.2990 
     95 H95        25.7571   24.6372   -3.7379 H         1 UNK         0.0690 
     96 H96        28.1848   24.8401   -1.8441 H         1 UNK         0.0788 
     97 H97        28.1887   25.2605   -3.5522 H         1 UNK         0.0788 
     98 H98        27.9696   23.5923   -3.0674 H         1 UNK         0.0788 
     99 H99        25.4376   24.3210   -0.8678 H         1 UNK         0.2993 
    100 H100       23.9248   22.4204   -0.3565 H         1 UNK         0.0949 
    101 H101       25.0613   19.8219   -1.5289 H         1 UNK         0.0767 
    102 H102       23.8596   19.9398   -0.2438 H         1 UNK         0.0767 
    103 H103       23.4697   20.4908   -1.8644 H         1 UNK         0.0767 
    104 H104       26.4046   20.9265    0.1916 H         1 UNK         0.3013 
    105 H105       29.0621   28.8584    2.2538 H         1 UNK         0.3121 
    106 H106       28.8700   26.2201    3.1680 H         1 UNK         0.0774 
    107 H107       26.5128   26.2940    4.1593 H         1 UNK         0.0815 
    108 H108       26.1668   27.6872    3.1467 H         1 UNK         0.0815 
    109 H109       26.5170   26.1239    2.4168 H         1 UNK         0.0815 
    110 H110       27.9314   29.6212    3.7803 H         1 UNK         0.2987 
    111 H111       28.4203   29.6106    6.5953 H         1 UNK         0.0949 
    112 H112       28.4073   31.9235    4.5688 H         1 UNK         0.0806 
    113 H113       27.0022   31.3231    5.4508 H         1 UNK         0.0806 
    114 H114       28.3183   32.0974    6.3157 H         1 UNK         0.0806 
    115 H115       30.2162   30.1643    7.7654 H         1 UNK         0.3010 
    116 H116       32.6870   29.3393    6.9519 H         1 UNK         0.0829 
    117 H117       31.9976   29.5112    9.3167 H         1 UNK         0.0813 
    118 H118       33.5143   30.3610    9.0840 H         1 UNK         0.0813 
    119 H119       32.0188   31.2738    9.2328 H         1 UNK         0.0813 
    120 H120       31.4867   32.6312    6.5938 H         1 UNK         0.3038 
    121 H121       33.9045   34.0038    6.0922 H         1 UNK         0.0769 
    122 H122       31.0888   34.4924    4.9723 H         1 UNK         0.0811 
    123 H123       32.4093   35.6527    4.9410 H         1 UNK         0.0811 
    124 H124       31.7337   35.1466    6.4793 H         1 UNK         0.0811 
    125 H125       32.2294   31.6690    4.0641 H         1 UNK         0.3204 
    126 H126       33.6130   32.5011    1.6008 H         1 UNK         0.0748 
    127 H127       31.2342   31.7320    1.5453 H         1 UNK         0.0771 
    128 H128       32.2779   30.7122    0.5720 H         1 UNK         0.0771 
    129 H129       31.7265   30.1508    2.1456 H         1 UNK         0.0771 
    130 H130       34.6717   30.7398    4.3137 H         1 UNK         0.2980 
    131 H131       36.7230   29.4291    2.7031 H         1 UNK         0.0545 
    132 H132       35.9187   30.8591    5.8271 H         1 UNK         0.3459 
    133 H133       37.5544   30.6519    6.4028 H         1 UNK         0.3459 
    134 H134       35.0915   27.6591    2.6512 H         1 UNK         0.0616 
    135 H135       36.4122   27.1777    3.6522 H         1 UNK         0.0616 
    136 H136       32.7834   28.7972    3.8192 H         1 UNK         0.0634 
    137 H137       32.0630   27.8128    5.0598 H         1 UNK         0.0634 
@<TRIPOS>BOND
     1    1    2 1    
     2    1   72 1    
     3    1   73 1    
     4    1   74 1    
     5    2    3 2    
     6    2    4 am   BACKBONE|DICT|INTERRES
     7    4    5 1    
     8    4   75 1    
     9    5    6 1    
    10    5   35 1    
    11    5   76 1    
    12    6    7 1    
    13    6   77 1    
    14    6   78 1    
    15    7    8 1    
    16    8    9 1    
    17    8   79 1    
    18    8   80 1    
    19    9   10 ar   
    20    9   14 ar   
    21   10   11 ar   
    22   10   81 1    
    23   11   12 ar   
    24   11   71 1    
    25   12   13 ar   
    26   12   82 1    
    27   13   14 ar   
    28   13   15 1    
    29   14   83 1    
    30   15   16 1    
    31   15   84 1    
    32   15   85 1    
    33   16   17 1    
    34   17   18 1    
    35   17   86 1    
    36   17   87 1    
    37   18   19 1    
    38   18   37 1    
    39   18   88 1    
    40   19   20 am   BACKBONE|DICT|INTERRES
    41   19   89 1    
    42   20   21 2    
    43   20   22 1    
    44   22   23 1    
    45   22   24 1    
    46   22   90 1    
    47   23   91 1    
    48   23   92 1    
    49   23   93 1    
    50   24   25 am   BACKBONE|DICT|INTERRES
    51   24   94 1    
    52   25   26 2    
    53   25   27 1    
    54   27   28 1    
    55   27   29 1    
    56   27   95 1    
    57   28   96 1    
    58   28   97 1    
    59   28   98 1    
    60   29   30 am   BACKBONE|DICT|INTERRES
    61   29   99 1    
    62   30   31 2    
    63   30   32 1    
    64   32   33 1    
    65   32   34 1    
    66   32  100 1    
    67   33  101 1    
    68   33  102 1    
    69   33  103 1    
    70   34   35 am   BACKBONE|DICT|INTERRES
    71   34  104 1    
    72   35   36 2    
    73   37   38 2    
    74   37   39 am   BACKBONE|DICT|INTERRES
    75   39   40 1    
    76   39  105 1    
    77   40   41 1    
    78   40   42 1    
    79   40  106 1    
    80   41  107 1    
    81   41  108 1    
    82   41  109 1    
    83   42   43 2    
    84   42   44 am   BACKBONE|DICT|INTERRES
    85   44   45 1    
    86   44  110 1    
    87   45   46 1    
    88   45   47 1    
    89   45  111 1    
    90   46  112 1    
    91   46  113 1    
    92   46  114 1    
    93   47   48 2    
    94   47   49 am   BACKBONE|DICT|INTERRES
    95   49   50 1    
    96   49  115 1    
    97   50   51 1    
    98   50   52 1    
    99   50  116 1    
   100   51  117 1    
   101   51  118 1    
   102   51  119 1    
   103   52   53 2    
   104   52   54 am   BACKBONE|DICT|INTERRES
   105   54   55 1    
   106   54  120 1    
   107   55   56 1    
   108   55   57 1    
   109   55  121 1    
   110   56  122 1    
   111   56  123 1    
   112   56  124 1    
   113   57   58 2    
   114   57   59 am   BACKBONE|DICT|INTERRES
   115   59   60 1    
   116   59  125 1    
   117   60   61 1    
   118   60   62 1    
   119   60  126 1    
   120   61  127 1    
   121   61  128 1    
   122   61  129 1    
   123   62   63 2    
   124   62   64 am   BACKBONE|DICT|INTERRES
   125   64   65 1    
   126   64  130 1    
   127   65   66 1    
   128   65   69 1    
   129   65  131 1    
   130   66   67 am   BACKBONE|DICT|INTERRES
   131   66   68 2    
   132   67  132 1    
   133   67  133 1    
   134   69   70 1    
   135   69  134 1    
   136   69  135 1    
   137   70   71 1    
   138   71  136 1    
   139   71  137 1    
@<TRIPOS>SUBSTRUCTURE
     1 UNK         1 GROUP             0       ****    0 ROOT    
