@<TRIPOS>MOLECULE
3R136
137   139    1
SMALL
USER_CHARGES


@<TRIPOS>ATOM
      1 CA         29.7434   26.2224    3.3983 C.3       0 UNK        -0.1979 
      2 C          29.2210   24.8567    2.9808 C.2       0 UNK         0.4864 
      3 O          28.4915   24.2166    3.7399 O.2       0 UNK        -0.5359 
      4 N          29.6149   24.3952    1.7878 N.am      1 UNK        -0.4318 
      5 CA         29.1804   23.1309    1.1925 C.3       1 UNK         0.0824 
      6 C6         30.0329   22.7520   -0.0422 C.3       12 UNK        -0.0944 
      7 S7         31.7454   22.3246    0.4127 S.3       12 UNK        -0.2672 
      8 C8         32.7125   23.5565   -0.5139 C.3       12 UNK         0.0333 
      9 C9         32.7654   24.9035    0.1930 C.ar      12 UNK        -0.0807 
     10 C10        33.5271   25.0469    1.3566 C.ar      12 UNK        -0.0894 
     11 C11        33.6448   26.2904    1.9831 C.ar      12 UNK        -0.0804 
     12 C12        32.9882   27.3980    1.4384 C.ar      12 UNK        -0.0824 
     13 C13        32.2214   27.2680    0.2756 C.ar      12 UNK        -0.0762 
     14 C14        32.1088   26.0169   -0.3408 C.ar      12 UNK        -0.0782 
     15 C15        31.5563   28.4918   -0.3381 C.3       12 UNK         0.0230 
     16 S16        29.9485   28.8505    0.4320 S.3       12 UNK        -0.2608 
     17 C17        28.9321   27.5063   -0.2620 C.3       12 UNK        -0.0989 
     18 CA         27.4177   27.8172   -0.2730 C.3       5 UNK         0.0716 
     19 N          26.6894   26.7782   -0.9888 N.am      5 UNK        -0.4135 
     20 C          26.2054   26.8857   -2.2296 C.2       4 UNK         0.5031 
     21 O          26.3611   27.8744   -2.9478 O.2       4 UNK        -0.5229 
     22 CA         25.4035   25.6894   -2.7663 C.3       4 UNK         0.0329 
     23 CB         26.3312   24.7005   -3.4912 C.3       4 UNK        -0.2001 
     24 N          24.6610   24.9797   -1.7222 N.am      4 UNK        -0.4303 
     25 C          23.5721   25.4510   -1.0940 C.2       3 UNK         0.5044 
     26 O          23.0808   26.5566   -1.3244 O.2       3 UNK        -0.5152 
     27 CA         22.8947   24.5355   -0.0549 C.3       3 UNK         0.0319 
     28 CB         21.5061   24.0949   -0.5492 C.3       3 UNK        -0.2001 
     29 N          23.6930   23.3408    0.2289 N.am      3 UNK        -0.4354 
     30 C          24.5891   23.2347    1.2179 C.2       2 UNK         0.4964 
     31 O          24.7233   24.0705    2.1118 O.2       2 UNK        -0.5047 
     32 CA         25.4876   21.9800    1.2120 C.3       2 UNK         0.0288 
     33 CB         25.3719   21.1256   -0.0733 C.3       2 UNK        -0.2113 
     34 N          26.9006   22.2861    1.4689 N.am      2 UNK        -0.4145 
     35 C          27.6831   23.1643    0.8204 C.2       1 UNK         0.5006 
     36 O          27.2940   23.9286   -0.0688 O.2       1 UNK        -0.5103 
     37 C          26.8226   27.8848    1.1409 C.2       5 UNK         0.5055 
     38 O          26.6790   26.8431    1.7816 O.2       5 UNK        -0.5220 
     39 N          26.4944   29.0971    1.6036 N.am      6 UNK        -0.4450 
     40 CA         26.0354   29.3477    2.9717 C.3       6 UNK         0.0367 
     41 CB         25.0975   30.5669    2.9913 C.3       6 UNK        -0.1929 
     42 C          27.2257   29.5551    3.9205 C.2       6 UNK         0.5070 
     43 O          27.2771   28.9332    4.9813 O.2       6 UNK        -0.5237 
     44 N          28.1598   30.4196    3.5108 N.am      7 UNK        -0.4739 
     45 CA         29.3800   30.7987    4.2166 C.3       7 UNK         0.0276 
     46 CB         29.0466   31.6287    5.4731 C.3       7 UNK        -0.1927 
     47 C          30.2460   31.6128    3.2468 C.2       7 UNK         0.5013 
     48 O          29.7132   32.1755    2.2848 O.2       7 UNK        -0.5193 
     49 N          31.5505   31.6794    3.5244 N.am      8 UNK        -0.4253 
     50 CA         32.5471   32.4207    2.7527 C.3       8 UNK         0.0242 
     51 CB         32.8317   31.7159    1.4053 C.3       8 UNK        -0.2000 
     52 C          33.7897   32.6105    3.6368 C.2       8 UNK         0.4948 
     53 O          33.6469   32.9671    4.8081 O.2       8 UNK        -0.5275 
     54 N          34.9831   32.3617    3.0829 N.am      9 UNK        -0.4246 
     55 CA         36.2258   32.2259    3.8410 C.3       9 UNK         0.0261 
     56 CB         37.4226   32.3967    2.8916 C.3       9 UNK        -0.1959 
     57 C          36.2614   30.8446    4.5128 C.2       9 UNK         0.5033 
     58 O          35.8428   29.8637    3.8915 O.2       9 UNK        -0.5390 
     59 N          36.7595   30.7933    5.7554 N.am      10 UNK        -0.4215 
     60 CA         36.8675   29.6279    6.6476 C.3       10 UNK         0.0240 
     61 CB         37.7711   28.5285    6.0519 C.3       10 UNK        -0.1982 
     62 C          35.5103   29.0570    7.1011 C.2       10 UNK         0.4970 
     63 O          35.2696   28.9695    8.3057 O.2       10 UNK        -0.4916 
     64 N          34.6558   28.6860    6.1429 N.am      11 UNK        -0.4279 
     65 CA         33.2833   28.2210    6.3666 C.3       11 UNK         0.1003 
     66 C          32.3605   29.4053    6.7478 C.2       11 UNK         0.5709 
     67 N          31.6866   29.3398    7.8873 N.am      11 UNK        -0.7358 
     68 O          32.2194   30.3602    5.9881 O.2       11 UNK        -0.4999 
     69 C69        32.7206   27.4765    5.1305 C.3       12 UNK        -0.0954 
     70 S70        33.6492   25.9574    4.7400 S.3       12 UNK        -0.2268 
     71 C71        34.5228   26.4363    3.2181 C.3       12 UNK         0.0203 
     72 H72        29.1273   27.0137    2.9741 H         1 UNK         0.0888 
     73 H73        29.7147   26.3214    4.4825 H         1 UNK         0.0888 
     74 H74        30.7706   26.3695    3.0662 H         1 UNK         0.0888 
     75 H75        30.2558   24.9404    1.2302 H         1 UNK         0.3017 
     76 H76        29.3250   22.3526    1.9454 H         1 UNK         0.0873 
     77 H77        29.6130   21.8784   -0.5453 H         1 UNK         0.0745 
     78 H78        30.0233   23.5568   -0.7798 H         1 UNK         0.0745 
     79 H79        32.3157   23.6544   -1.5256 H         1 UNK         0.0705 
     80 H80        33.7305   23.1808   -0.6273 H         1 UNK         0.0705 
     81 H81        34.0436   24.1894    1.7665 H         1 UNK         0.1334 
     82 H82        33.0867   28.3656    1.9100 H         1 UNK         0.1417 
     83 H83        31.5335   25.9169   -1.2514 H         1 UNK         0.1562 
     84 H84        31.4306   28.3651   -1.4145 H         1 UNK         0.0748 
     85 H85        32.2068   29.3579   -0.2177 H         1 UNK         0.0748 
     86 H86        29.1342   26.5865    0.2849 H         1 UNK         0.0940 
     87 H87        29.2626   27.3238   -1.2857 H         1 UNK         0.0940 
     88 H88        27.2596   28.7815   -0.7612 H         1 UNK         0.0703 
     89 H89        26.5350   25.9216   -0.4655 H         1 UNK         0.3081 
     90 H90        24.6829   26.0742   -3.4913 H         1 UNK         0.0719 
     91 H91        26.8788   25.1969   -4.2937 H         1 UNK         0.0809 
     92 H92        27.0685   24.2663   -2.8145 H         1 UNK         0.0809 
     93 H93        25.7672   23.8841   -3.9425 H         1 UNK         0.0809 
     94 H94        25.0348   24.0881   -1.4317 H         1 UNK         0.2990 
     95 H95        22.7613   25.1204    0.8577 H         1 UNK         0.0690 
     96 H96        21.0000   23.4760    0.1920 H         1 UNK         0.0788 
     97 H97        21.5680   23.5253   -1.4774 H         1 UNK         0.0788 
     98 H98        20.8661   24.9579   -0.7386 H         1 UNK         0.0788 
     99 H99        23.6241   22.5834   -0.4363 H         1 UNK         0.2993 
    100 H100       25.1481   21.3683    2.0494 H         1 UNK         0.0949 
    101 H101       26.0152   20.2473   -0.0145 H         1 UNK         0.0767 
    102 H102       24.3564   20.7562   -0.2219 H         1 UNK         0.0767 
    103 H103       25.6646   21.6831   -0.9642 H         1 UNK         0.0767 
    104 H104       27.3179   21.7615    2.2250 H         1 UNK         0.3013 
    105 H105       26.6438   29.9031    1.0136 H         1 UNK         0.3121 
    106 H106       25.4668   28.4860    3.3296 H         1 UNK         0.0774 
    107 H107       24.2173   30.3978    2.3708 H         1 UNK         0.0815 
    108 H108       24.7446   30.7684    4.0038 H         1 UNK         0.0815 
    109 H109       25.5914   31.4709    2.6332 H         1 UNK         0.0815 
    110 H110       28.0665   30.8778    2.6123 H         1 UNK         0.2987 
    111 H111       29.9197   29.8918    4.4975 H         1 UNK         0.0949 
    112 H112       28.4845   31.0462    6.2027 H         1 UNK         0.0806 
    113 H113       29.9552   31.9695    5.9711 H         1 UNK         0.0806 
    114 H114       28.4593   32.5136    5.2250 H         1 UNK         0.0806 
    115 H115       31.8932   31.2593    4.3892 H         1 UNK         0.3010 
    116 H116       32.1518   33.4178    2.5484 H         1 UNK         0.0829 
    117 H117       33.2675   30.7276    1.5527 H         1 UNK         0.0813 
    118 H118       33.5151   32.2983    0.7863 H         1 UNK         0.0813 
    119 H119       31.9198   31.5905    0.8215 H         1 UNK         0.0813 
    120 H120       35.0055   32.0335    2.1287 H         1 UNK         0.3038 
    121 H121       36.2682   33.0066    4.6038 H         1 UNK         0.0769 
    122 H122       37.4064   33.3715    2.4038 H         1 UNK         0.0811 
    123 H123       37.4348   31.6317    2.1139 H         1 UNK         0.0811 
    124 H124       38.3653   32.3225    3.4354 H         1 UNK         0.0811 
    125 H125       37.0539   31.6670    6.1710 H         1 UNK         0.3204 
    126 H126       37.3640   29.9961    7.5471 H         1 UNK         0.0748 
    127 H127       38.7566   28.9203    5.8000 H         1 UNK         0.0771 
    128 H128       37.9178   27.7182    6.7671 H         1 UNK         0.0771 
    129 H129       37.3466   28.0873    5.1496 H         1 UNK         0.0771 
    130 H130       34.9276   28.8700    5.1808 H         1 UNK         0.2980 
    131 H131       33.3020   27.5148    7.1994 H         1 UNK         0.0545 
    132 H132       31.0731   30.0991    8.1359 H         1 UNK         0.3459 
    133 H133       31.7954   28.5575    8.5136 H         1 UNK         0.3459 
    134 H134       32.6903   28.1340    4.2605 H         1 UNK         0.0616 
    135 H135       31.6902   27.1789    5.3231 H         1 UNK         0.0616 
    136 H136       35.4049   25.8033    3.1120 H         1 UNK         0.0634 
    137 H137       34.8959   27.4565    3.3090 H         1 UNK         0.0634 
@<TRIPOS>BOND
     1    1    2 1    
     2    1   72 1    
     3    1   73 1    
     4    1   74 1    
     5    2    3 2    
     6    2    4 am   BACKBONE|DICT|INTERRES
     7    4    5 1    
     8    4   75 1    
     9    5    6 1    
    10    5   35 1    
    11    5   76 1    
    12    6    7 1    
    13    6   77 1    
    14    6   78 1    
    15    7    8 1    
    16    8    9 1    
    17    8   79 1    
    18    8   80 1    
    19    9   10 ar   
    20    9   14 ar   
    21   10   11 ar   
    22   10   81 1    
    23   11   12 ar   
    24   11   71 1    
    25   12   13 ar   
    26   12   82 1    
    27   13   14 ar   
    28   13   15 1    
    29   14   83 1    
    30   15   16 1    
    31   15   84 1    
    32   15   85 1    
    33   16   17 1    
    34   17   18 1    
    35   17   86 1    
    36   17   87 1    
    37   18   19 1    
    38   18   37 1    
    39   18   88 1    
    40   19   20 am   BACKBONE|DICT|INTERRES
    41   19   89 1    
    42   20   21 2    
    43   20   22 1    
    44   22   23 1    
    45   22   24 1    
    46   22   90 1    
    47   23   91 1    
    48   23   92 1    
    49   23   93 1    
    50   24   25 am   BACKBONE|DICT|INTERRES
    51   24   94 1    
    52   25   26 2    
    53   25   27 1    
    54   27   28 1    
    55   27   29 1    
    56   27   95 1    
    57   28   96 1    
    58   28   97 1    
    59   28   98 1    
    60   29   30 am   BACKBONE|DICT|INTERRES
    61   29   99 1    
    62   30   31 2    
    63   30   32 1    
    64   32   33 1    
    65   32   34 1    
    66   32  100 1    
    67   33  101 1    
    68   33  102 1    
    69   33  103 1    
    70   34   35 am   BACKBONE|DICT|INTERRES
    71   34  104 1    
    72   35   36 2    
    73   37   38 2    
    74   37   39 am   BACKBONE|DICT|INTERRES
    75   39   40 1    
    76   39  105 1    
    77   40   41 1    
    78   40   42 1    
    79   40  106 1    
    80   41  107 1    
    81   41  108 1    
    82   41  109 1    
    83   42   43 2    
    84   42   44 am   BACKBONE|DICT|INTERRES
    85   44   45 1    
    86   44  110 1    
    87   45   46 1    
    88   45   47 1    
    89   45  111 1    
    90   46  112 1    
    91   46  113 1    
    92   46  114 1    
    93   47   48 2    
    94   47   49 am   BACKBONE|DICT|INTERRES
    95   49   50 1    
    96   49  115 1    
    97   50   51 1    
    98   50   52 1    
    99   50  116 1    
   100   51  117 1    
   101   51  118 1    
   102   51  119 1    
   103   52   53 2    
   104   52   54 am   BACKBONE|DICT|INTERRES
   105   54   55 1    
   106   54  120 1    
   107   55   56 1    
   108   55   57 1    
   109   55  121 1    
   110   56  122 1    
   111   56  123 1    
   112   56  124 1    
   113   57   58 2    
   114   57   59 am   BACKBONE|DICT|INTERRES
   115   59   60 1    
   116   59  125 1    
   117   60   61 1    
   118   60   62 1    
   119   60  126 1    
   120   61  127 1    
   121   61  128 1    
   122   61  129 1    
   123   62   63 2    
   124   62   64 am   BACKBONE|DICT|INTERRES
   125   64   65 1    
   126   64  130 1    
   127   65   66 1    
   128   65   69 1    
   129   65  131 1    
   130   66   67 am   BACKBONE|DICT|INTERRES
   131   66   68 2    
   132   67  132 1    
   133   67  133 1    
   134   69   70 1    
   135   69  134 1    
   136   69  135 1    
   137   70   71 1    
   138   71  136 1    
   139   71  137 1    
@<TRIPOS>SUBSTRUCTURE
     1 UNK         1 GROUP             0       ****    0 ROOT    
