@<TRIPOS>MOLECULE
3R136
137   139    1
SMALL
USER_CHARGES


@<TRIPOS>ATOM
      1 CA         30.5490   26.7893    2.2579 C.3       0 UNK        -0.1979 
      2 C          29.8807   25.6790    3.0504 C.2       0 UNK         0.4864 
      3 O          29.1315   25.9658    3.9844 O.2       0 UNK        -0.5359 
      4 N          30.1294   24.4154    2.6779 N.am      1 UNK        -0.4318 
      5 CA         29.5489   23.2265    3.3212 C.3       1 UNK         0.0824 
      6 C6         30.2844   21.9242    2.9182 C.3       12 UNK        -0.0944 
      7 S7         32.0220   21.9107    3.4734 S.3       12 UNK        -0.2672 
      8 C8         32.9310   21.7045    1.9110 C.3       12 UNK         0.0333 
      9 C9         32.8901   22.9596    1.0522 C.ar      12 UNK        -0.0807 
     10 C10        33.7195   24.0436    1.3540 C.ar      12 UNK        -0.0894 
     11 C11        33.7146   25.1899    0.5530 C.ar      12 UNK        -0.0804 
     12 C12        32.8651   25.2439   -0.5588 C.ar      12 UNK        -0.0824 
     13 C13        32.0379   24.1604   -0.8764 C.ar      12 UNK        -0.0762 
     14 C14        32.0547   23.0225   -0.0658 C.ar      12 UNK        -0.0782 
     15 C15        31.1564   24.1885   -2.1186 C.3       12 UNK         0.0230 
     16 S16        29.3886   24.2893   -1.6974 S.3       12 UNK        -0.2608 
     17 C17        29.2545   26.0183   -1.1450 C.3       12 UNK        -0.0989 
     18 CA         28.2808   26.8551   -2.0158 C.3       5 UNK         0.0716 
     19 N          26.9194   26.3218   -2.0336 N.am      5 UNK        -0.4135 
     20 C          26.0362   26.5147   -3.0239 C.2       4 UNK         0.5031 
     21 O          26.3114   27.0556   -4.0958 O.2       4 UNK        -0.5229 
     22 CA         24.5929   26.0312   -2.7829 C.3       4 UNK         0.0329 
     23 CB         24.3997   24.6161   -3.3519 C.3       4 UNK        -0.2001 
     24 N          24.2143   26.0365   -1.3683 N.am      4 UNK        -0.4303 
     25 C          24.0733   27.1351   -0.6109 C.2       3 UNK         0.5044 
     26 O          24.1161   28.2827   -1.0530 O.2       3 UNK        -0.5152 
     27 CA         23.8920   26.9160    0.9041 C.3       3 UNK         0.0319 
     28 CB         22.4070   27.0132    1.2886 C.3       3 UNK        -0.2001 
     29 N          24.4357   25.6381    1.3840 N.am      3 UNK        -0.4354 
     30 C          25.7302   25.2951    1.3417 C.2       2 UNK         0.4964 
     31 O          26.6231   26.0338    0.9136 O.2       2 UNK        -0.5047 
     32 CA         26.0655   23.8625    1.7668 C.3       2 UNK         0.0288 
     33 CB         25.7541   22.8724    0.6300 C.3       2 UNK        -0.2113 
     34 N          27.4855   23.7903    2.0868 N.am      2 UNK        -0.4145 
     35 C          28.0280   23.0804    3.0830 C.2       1 UNK         0.5006 
     36 O          27.3777   22.3269    3.8105 O.2       1 UNK        -0.5103 
     37 C          28.2296   28.3122   -1.5280 C.2       5 UNK         0.5055 
     38 O          28.5555   29.2164   -2.2986 O.2       5 UNK        -0.5220 
     39 N          27.8001   28.4818   -0.2649 N.am      6 UNK        -0.4450 
     40 CA         27.7680   29.7064    0.5461 C.3       6 UNK         0.0367 
     41 CB         26.8681   30.7820   -0.0924 C.3       6 UNK        -0.1929 
     42 C          29.1685   30.2699    0.8654 C.2       6 UNK         0.5070 
     43 O          30.0649   30.2608    0.0209 O.2       6 UNK        -0.5237 
     44 N          29.3326   30.7792    2.0895 N.am      7 UNK        -0.4739 
     45 CA         30.5519   31.4231    2.5728 C.3       7 UNK         0.0276 
     46 CB         31.6233   30.3666    2.9099 C.3       7 UNK        -0.1927 
     47 C          30.2086   32.2418    3.8183 C.2       7 UNK         0.5013 
     48 O          29.2836   31.8776    4.5498 O.2       7 UNK        -0.5193 
     49 N          30.9990   33.2880    4.0874 N.am      8 UNK        -0.4253 
     50 CA         30.9148   34.1148    5.2969 C.3       8 UNK         0.0242 
     51 CB         31.4828   35.5132    4.9875 C.3       8 UNK        -0.2000 
     52 C          31.6255   33.4331    6.4840 C.2       8 UNK         0.4948 
     53 O          32.5631   33.9970    7.0494 O.2       8 UNK        -0.5275 
     54 N          31.1993   32.1988    6.7927 N.am      9 UNK        -0.4246 
     55 CA         31.7304   31.2768    7.8093 C.3       9 UNK         0.0261 
     56 CB         31.5558   31.8621    9.2270 C.3       9 UNK        -0.1959 
     57 C          33.1763   30.7911    7.5578 C.2       9 UNK         0.5033 
     58 O          33.7602   30.1654    8.4439 O.2       9 UNK        -0.5390 
     59 N          33.7280   31.0597    6.3650 N.am      10 UNK        -0.4215 
     60 CA         35.0985   30.7138    5.9742 C.3       10 UNK         0.0240 
     61 CB         35.4811   31.4963    4.7069 C.3       10 UNK        -0.1982 
     62 C          35.3227   29.2063    5.7637 C.2       10 UNK         0.4970 
     63 O          36.4200   28.7208    6.0421 O.2       10 UNK        -0.4916 
     64 N          34.2934   28.5015    5.2805 N.am      11 UNK        -0.4279 
     65 CA         34.3176   27.0562    5.0086 C.3       11 UNK         0.1003 
     66 C          32.9559   26.3460    5.2515 C.2       11 UNK         0.5709 
     67 N          31.9558   27.0018    5.8307 N.am      11 UNK        -0.7358 
     68 O          32.8074   25.1708    4.9324 O.2       11 UNK        -0.4999 
     69 C69        34.9654   26.7230    3.6346 C.3       12 UNK        -0.0954 
     70 S70        34.0804   27.4209    2.1961 S.3       12 UNK        -0.2268 
     71 C71        34.6663   26.3446    0.8482 C.3       12 UNK         0.0203 
     72 H72        29.7985   27.4504    1.8279 H         1 UNK         0.0888 
     73 H73        31.1829   27.3795    2.9163 H         1 UNK         0.0888 
     74 H74        31.1672   26.4006    1.4503 H         1 UNK         0.0888 
     75 H75        30.7997   24.2304    1.9436 H         1 UNK         0.3017 
     76 H76        29.6715   23.3548    4.3991 H         1 UNK         0.0873 
     77 H77        29.8039   21.0556    3.3732 H         1 UNK         0.0745 
     78 H78        30.2269   21.7667    1.8403 H         1 UNK         0.0745 
     79 H79        32.5330   20.8453    1.3686 H         1 UNK         0.0705 
     80 H80        33.9693   21.4610    2.1414 H         1 UNK         0.0705 
     81 H81        34.3779   23.9822    2.2083 H         1 UNK         0.1334 
     82 H82        32.8663   26.1216   -1.1909 H         1 UNK         0.1417 
     83 H83        31.4239   22.1805   -0.3181 H         1 UNK         0.1562 
     84 H84        31.3266   23.2786   -2.6960 H         1 UNK         0.0748 
     85 H85        31.4247   25.0178   -2.7751 H         1 UNK         0.0748 
     86 H86        30.2432   26.4806   -1.1500 H         1 UNK         0.0940 
     87 H87        28.9473   25.9983   -0.1010 H         1 UNK         0.0940 
     88 H88        28.6718   26.8577   -3.0360 H         1 UNK         0.0703 
     89 H89        26.6018   25.9038   -1.1694 H         1 UNK         0.3081 
     90 H90        23.9234   26.7111   -3.3142 H         1 UNK         0.0719 
     91 H91        25.0355   23.8865   -2.8484 H         1 UNK         0.0809 
     92 H92        23.3652   24.2861   -3.2546 H         1 UNK         0.0809 
     93 H93        24.6485   24.5863   -4.4138 H         1 UNK         0.0809 
     94 H94        24.1248   25.1375   -0.9189 H         1 UNK         0.2990 
     95 H95        24.4314   27.7180    1.4127 H         1 UNK         0.0690 
     96 H96        22.2710   26.9479    2.3683 H         1 UNK         0.0788 
     97 H97        21.8163   26.2216    0.8257 H         1 UNK         0.0788 
     98 H98        21.9828   27.9660    0.9682 H         1 UNK         0.0788 
     99 H99        23.7659   24.9706    1.7406 H         1 UNK         0.2993 
    100 H100       25.4691   23.6174    2.6486 H         1 UNK         0.0949 
    101 H101       26.3204   23.1045   -0.2736 H         1 UNK         0.0767 
    102 H102       25.9991   21.8506    0.9209 H         1 UNK         0.0767 
    103 H103       24.6953   22.8862    0.3690 H         1 UNK         0.0767 
    104 H104       28.0677   24.4411    1.5777 H         1 UNK         0.3013 
    105 H105       27.5038   27.6462    0.2323 H         1 UNK         0.3121 
    106 H106       27.3089   29.4100    1.4908 H         1 UNK         0.0774 
    107 H107       26.7442   31.6335    0.5777 H         1 UNK         0.0815 
    108 H108       27.2871   31.1639   -1.0236 H         1 UNK         0.0815 
    109 H109       25.8738   30.3903   -0.3075 H         1 UNK         0.0815 
    110 H110       28.5654   30.7947    2.7515 H         1 UNK         0.2987 
    111 H111       30.9275   32.0982    1.8003 H         1 UNK         0.0949 
    112 H112       31.2830   29.6867    3.6916 H         1 UNK         0.0806 
    113 H113       31.8862   29.7683    2.0374 H         1 UNK         0.0806 
    114 H114       32.5419   30.8372    3.2588 H         1 UNK         0.0806 
    115 H115       31.7517   33.5063    3.4495 H         1 UNK         0.3010 
    116 H116       29.8657   34.2378    5.5760 H         1 UNK         0.0829 
    117 H117       30.9362   35.9924    4.1750 H         1 UNK         0.0813 
    118 H118       31.4048   36.1675    5.8570 H         1 UNK         0.0813 
    119 H119       32.5355   35.4704    4.7050 H         1 UNK         0.0813 
    120 H120       30.4245   31.8419    6.2399 H         1 UNK         0.3038 
    121 H121       31.1075   30.3832    7.7489 H         1 UNK         0.0769 
    122 H122       32.2021   32.7246    9.3924 H         1 UNK         0.0811 
    123 H123       31.8023   31.1232    9.9904 H         1 UNK         0.0811 
    124 H124       30.5268   32.1748    9.4037 H         1 UNK         0.0811 
    125 H125       33.1912   31.6123    5.7145 H         1 UNK         0.3204 
    126 H126       35.7632   31.0325    6.7802 H         1 UNK         0.0748 
    127 H127       36.5188   31.3035    4.4308 H         1 UNK         0.0771 
    128 H128       34.8633   31.2178    3.8528 H         1 UNK         0.0771 
    129 H129       35.3836   32.5717    4.8585 H         1 UNK         0.0771 
    130 H130       33.4378   28.9783    5.0447 H         1 UNK         0.2980 
    131 H131       34.9594   26.6045    5.7672 H         1 UNK         0.0545 
    132 H132       31.0805   26.5191    5.9626 H         1 UNK         0.3459 
    133 H133       32.0747   27.9298    6.1965 H         1 UNK         0.3459 
    134 H134       35.0579   25.6437    3.5201 H         1 UNK         0.0616 
    135 H135       35.9872   27.1039    3.6102 H         1 UNK         0.0616 
    136 H136       35.6587   25.9581    1.0850 H         1 UNK         0.0634 
    137 H137       34.7926   26.9590   -0.0444 H         1 UNK         0.0634 
@<TRIPOS>BOND
     1    1    2 1    
     2    1   72 1    
     3    1   73 1    
     4    1   74 1    
     5    2    3 2    
     6    2    4 am   BACKBONE|DICT|INTERRES
     7    4    5 1    
     8    4   75 1    
     9    5    6 1    
    10    5   35 1    
    11    5   76 1    
    12    6    7 1    
    13    6   77 1    
    14    6   78 1    
    15    7    8 1    
    16    8    9 1    
    17    8   79 1    
    18    8   80 1    
    19    9   10 ar   
    20    9   14 ar   
    21   10   11 ar   
    22   10   81 1    
    23   11   12 ar   
    24   11   71 1    
    25   12   13 ar   
    26   12   82 1    
    27   13   14 ar   
    28   13   15 1    
    29   14   83 1    
    30   15   16 1    
    31   15   84 1    
    32   15   85 1    
    33   16   17 1    
    34   17   18 1    
    35   17   86 1    
    36   17   87 1    
    37   18   19 1    
    38   18   37 1    
    39   18   88 1    
    40   19   20 am   BACKBONE|DICT|INTERRES
    41   19   89 1    
    42   20   21 2    
    43   20   22 1    
    44   22   23 1    
    45   22   24 1    
    46   22   90 1    
    47   23   91 1    
    48   23   92 1    
    49   23   93 1    
    50   24   25 am   BACKBONE|DICT|INTERRES
    51   24   94 1    
    52   25   26 2    
    53   25   27 1    
    54   27   28 1    
    55   27   29 1    
    56   27   95 1    
    57   28   96 1    
    58   28   97 1    
    59   28   98 1    
    60   29   30 am   BACKBONE|DICT|INTERRES
    61   29   99 1    
    62   30   31 2    
    63   30   32 1    
    64   32   33 1    
    65   32   34 1    
    66   32  100 1    
    67   33  101 1    
    68   33  102 1    
    69   33  103 1    
    70   34   35 am   BACKBONE|DICT|INTERRES
    71   34  104 1    
    72   35   36 2    
    73   37   38 2    
    74   37   39 am   BACKBONE|DICT|INTERRES
    75   39   40 1    
    76   39  105 1    
    77   40   41 1    
    78   40   42 1    
    79   40  106 1    
    80   41  107 1    
    81   41  108 1    
    82   41  109 1    
    83   42   43 2    
    84   42   44 am   BACKBONE|DICT|INTERRES
    85   44   45 1    
    86   44  110 1    
    87   45   46 1    
    88   45   47 1    
    89   45  111 1    
    90   46  112 1    
    91   46  113 1    
    92   46  114 1    
    93   47   48 2    
    94   47   49 am   BACKBONE|DICT|INTERRES
    95   49   50 1    
    96   49  115 1    
    97   50   51 1    
    98   50   52 1    
    99   50  116 1    
   100   51  117 1    
   101   51  118 1    
   102   51  119 1    
   103   52   53 2    
   104   52   54 am   BACKBONE|DICT|INTERRES
   105   54   55 1    
   106   54  120 1    
   107   55   56 1    
   108   55   57 1    
   109   55  121 1    
   110   56  122 1    
   111   56  123 1    
   112   56  124 1    
   113   57   58 2    
   114   57   59 am   BACKBONE|DICT|INTERRES
   115   59   60 1    
   116   59  125 1    
   117   60   61 1    
   118   60   62 1    
   119   60  126 1    
   120   61  127 1    
   121   61  128 1    
   122   61  129 1    
   123   62   63 2    
   124   62   64 am   BACKBONE|DICT|INTERRES
   125   64   65 1    
   126   64  130 1    
   127   65   66 1    
   128   65   69 1    
   129   65  131 1    
   130   66   67 am   BACKBONE|DICT|INTERRES
   131   66   68 2    
   132   67  132 1    
   133   67  133 1    
   134   69   70 1    
   135   69  134 1    
   136   69  135 1    
   137   70   71 1    
   138   71  136 1    
   139   71  137 1    
@<TRIPOS>SUBSTRUCTURE
     1 UNK         1 GROUP             0       ****    0 ROOT    
