@<TRIPOS>MOLECULE
3R136
137   139    1
SMALL
USER_CHARGES


@<TRIPOS>ATOM
      1 CA         26.8979   21.6289    0.8943 C.3       0 UNK        -0.1979 
      2 C          26.8546   23.0397    1.4596 C.2       0 UNK         0.4864 
      3 O          26.1143   23.8809    0.9489 O.2       0 UNK        -0.5359 
      4 N          27.6177   23.3024    2.5299 N.am      1 UNK        -0.4318 
      5 CA         27.8311   24.6109    3.1744 C.3       1 UNK         0.0824 
      6 C6         29.0603   24.5814    4.1198 C.3       12 UNK        -0.0944 
      7 S7         30.6051   24.2483    3.2101 S.3       12 UNK        -0.2672 
      8 C8         31.2531   25.9409    3.0733 C.3       12 UNK         0.0333 
      9 C9         32.5178   25.9927    2.2334 C.ar      12 UNK        -0.0807 
     10 C10        33.7669   25.8098    2.8312 C.ar      12 UNK        -0.0894 
     11 C11        34.9378   25.9490    2.0803 C.ar      12 UNK        -0.0804 
     12 C12        34.8525   26.2395    0.7144 C.ar      12 UNK        -0.0824 
     13 C13        33.6083   26.4311    0.1065 C.ar      12 UNK        -0.0762 
     14 C14        32.4445   26.2936    0.8714 C.ar      12 UNK        -0.0782 
     15 C15        33.5320   26.8899   -1.3444 C.3       12 UNK         0.0230 
     16 S16        32.3457   25.9204   -2.3294 S.3       12 UNK        -0.2608 
     17 C17        31.8664   27.1394   -3.6084 C.3       12 UNK        -0.0989 
     18 CA         30.5235   27.8629   -3.3167 C.3       5 UNK         0.0716 
     19 N          29.4623   26.9074   -2.9688 N.am      5 UNK        -0.4135 
     20 C          28.1593   27.1906   -2.8403 C.2       4 UNK         0.5031 
     21 O          27.6672   28.2811   -3.1363 O.2       4 UNK        -0.5229 
     22 CA         27.2564   26.0965   -2.2507 C.3       4 UNK         0.0329 
     23 CB         28.0032   24.8290   -1.7818 C.3       4 UNK        -0.2001 
     24 N          26.5200   26.6731   -1.1251 N.am      4 UNK        -0.4303 
     25 C          25.1983   26.5790   -0.9505 C.2       3 UNK         0.5044 
     26 O          24.4545   25.9079   -1.6700 O.2       3 UNK        -0.5152 
     27 CA         24.6029   27.3484    0.2363 C.3       3 UNK         0.0319 
     28 CB         23.2189   27.9348   -0.1271 C.3       3 UNK        -0.2001 
     29 N          24.5267   26.4320    1.3735 N.am      3 UNK        -0.4354 
     30 C          24.0719   26.7094    2.6067 C.2       2 UNK         0.4964 
     31 O          23.6328   27.8049    2.9554 O.2       2 UNK        -0.5047 
     32 CA         24.1492   25.5749    3.6460 C.3       2 UNK         0.0288 
     33 CB         22.9379   24.6364    3.5230 C.3       2 UNK        -0.2113 
     34 N          25.3806   24.8081    3.4753 N.am      2 UNK        -0.4145 
     35 C          26.5876   25.2400    3.8553 C.2       1 UNK         0.5006 
     36 O          26.7377   26.1501    4.6730 O.2       1 UNK        -0.5103 
     37 C          30.6905   28.9824   -2.2600 C.2       5 UNK         0.5055 
     38 O          31.1505   30.0749   -2.5943 O.2       5 UNK        -0.5220 
     39 N          30.2918   28.6875   -1.0191 N.am      6 UNK        -0.4450 
     40 CA         30.1523   29.5820    0.1207 C.3       6 UNK         0.0367 
     41 CB         31.5218   29.8554    0.7718 C.3       6 UNK        -0.1929 
     42 C          29.1413   28.9175    1.0709 C.2       6 UNK         0.5070 
     43 O          28.4671   27.9608    0.6677 O.2       6 UNK        -0.5237 
     44 N          29.0397   29.4151    2.3060 N.am      7 UNK        -0.4739 
     45 CA         28.1537   28.8753    3.3323 C.3       7 UNK         0.0276 
     46 CB         26.7686   29.5383    3.2295 C.3       7 UNK        -0.1927 
     47 C          28.7623   29.0877    4.7214 C.2       7 UNK         0.5013 
     48 O          29.5768   29.9968    4.9037 O.2       7 UNK        -0.5193 
     49 N          28.3151   28.2611    5.6756 N.am      8 UNK        -0.4253 
     50 CA         28.7196   28.2286    7.0830 C.3       8 UNK         0.0242 
     51 CB         28.2361   29.5010    7.8186 C.3       8 UNK        -0.2000 
     52 C          30.2245   27.9306    7.2349 C.2       8 UNK         0.4948 
     53 O          30.7211   27.0054    6.5913 O.2       8 UNK        -0.5275 
     54 N          30.9173   28.6917    8.0908 N.am      9 UNK        -0.4246 
     55 CA         32.3502   28.5509    8.3597 C.3       9 UNK         0.0261 
     56 CB         32.6421   29.0958    9.7688 C.3       9 UNK        -0.1959 
     57 C          33.2472   29.2462    7.3175 C.2       9 UNK         0.5033 
     58 O          34.4611   29.0356    7.3501 O.2       9 UNK        -0.5390 
     59 N          32.6680   30.0804    6.4429 N.am      10 UNK        -0.4215 
     60 CA         33.3931   30.8121    5.4054 C.3       10 UNK         0.0240 
     61 CB         32.5817   32.0549    5.0028 C.3       10 UNK        -0.1982 
     62 C          33.6452   29.9166    4.1850 C.2       10 UNK         0.4970 
     63 O          32.7545   29.1581    3.7997 O.2       10 UNK        -0.4916 
     64 N          34.8306   30.0645    3.5829 N.am      11 UNK        -0.4279 
     65 CA         35.2336   29.3850    2.3397 C.3       11 UNK         0.1003 
     66 C          35.1874   30.3079    1.0880 C.2       11 UNK         0.5709 
     67 N          34.7749   31.5657    1.1998 N.am      11 UNK        -0.7358 
     68 O          35.5133   29.8717   -0.0131 O.2       11 UNK        -0.4999 
     69 C69        36.6134   28.6806    2.4832 C.3       12 UNK        -0.0954 
     70 S70        36.6188   27.3716    3.7576 S.3       12 UNK        -0.2268 
     71 C71        36.2933   25.8740    2.7662 C.3       12 UNK         0.0203 
     72 H72        27.2297   21.6534   -0.1432 H         1 UNK         0.0888 
     73 H73        27.5777   20.9859    1.4531 H         1 UNK         0.0888 
     74 H74        25.9046   21.1822    0.9242 H         1 UNK         0.0888 
     75 H75        28.1835   22.5562    2.9089 H         1 UNK         0.3017 
     76 H76        28.0671   25.3078    2.3664 H         1 UNK         0.0873 
     77 H77        29.1821   25.5229    4.6587 H         1 UNK         0.0745 
     78 H78        28.9331   23.8157    4.8870 H         1 UNK         0.0745 
     79 H79        30.4893   26.5880    2.6396 H         1 UNK         0.0705 
     80 H80        31.4568   26.3369    4.0695 H         1 UNK         0.0705 
     81 H81        33.8298   25.6100    3.8922 H         1 UNK         0.1334 
     82 H82        35.7579   26.3763    0.1388 H         1 UNK         0.1417 
     83 H83        31.4792   26.4597    0.4149 H         1 UNK         0.1562 
     84 H84        34.5099   26.8337   -1.8252 H         1 UNK         0.0748 
     85 H85        33.2512   27.9435   -1.3449 H         1 UNK         0.0748 
     86 H86        31.7762   26.5960   -4.5503 H         1 UNK         0.0940 
     87 H87        32.6753   27.8551   -3.7710 H         1 UNK         0.0940 
     88 H88        30.2123   28.3613   -4.2373 H         1 UNK         0.0703 
     89 H89        29.7830   25.9834   -2.7154 H         1 UNK         0.3081 
     90 H90        26.5703   25.8114   -3.0509 H         1 UNK         0.0719 
     91 H91        28.5751   24.3726   -2.5907 H         1 UNK         0.0809 
     92 H92        27.2946   24.0741   -1.4430 H         1 UNK         0.0809 
     93 H93        28.6832   25.0354   -0.9538 H         1 UNK         0.0809 
     94 H94        27.0715   27.2368   -0.4814 H         1 UNK         0.2990 
     95 H95        25.2755   28.1687    0.4917 H         1 UNK         0.0690 
     96 H96        22.8610   28.6331    0.6286 H         1 UNK         0.0788 
     97 H97        22.4677   27.1528   -0.2440 H         1 UNK         0.0788 
     98 H98        23.2643   28.4868   -1.0669 H         1 UNK         0.0788 
     99 H99        24.9041   25.5061    1.1869 H         1 UNK         0.2993 
    100 H100       24.1395   26.0235    4.6421 H         1 UNK         0.0949 
    101 H101       22.9650   23.8551    4.2828 H         1 UNK         0.0767 
    102 H102       22.0051   25.1862    3.6561 H         1 UNK         0.0767 
    103 H103       22.8962   24.1529    2.5460 H         1 UNK         0.0767 
    104 H104       25.3735   24.1019    2.7479 H         1 UNK         0.3013 
    105 H105       29.8494   27.7911   -0.8603 H         1 UNK         0.3121 
    106 H106       29.7180   30.5228   -0.2229 H         1 UNK         0.0774 
    107 H107       31.4478   30.6102    1.5549 H         1 UNK         0.0815 
    108 H108       31.9409   28.9587    1.2257 H         1 UNK         0.0815 
    109 H109       32.2419   30.2258    0.0425 H         1 UNK         0.0815 
    110 H110       29.6637   30.1464    2.6239 H         1 UNK         0.2987 
    111 H111       28.0523   27.8009    3.1757 H         1 UNK         0.0949 
    112 H112       26.8248   30.6142    3.3986 H         1 UNK         0.0806 
    113 H113       26.3207   29.3764    2.2501 H         1 UNK         0.0806 
    114 H114       26.0805   29.1247    3.9681 H         1 UNK         0.0806 
    115 H115       27.6683   27.5242    5.3954 H         1 UNK         0.3010 
    116 H116       28.2010   27.3763    7.5246 H         1 UNK         0.0829 
    117 H117       27.1666   29.6515    7.6707 H         1 UNK         0.0813 
    118 H118       28.3949   29.4245    8.8950 H         1 UNK         0.0813 
    119 H119       28.7431   30.4002    7.4663 H         1 UNK         0.0813 
    120 H120       30.4322   29.4295    8.5811 H         1 UNK         0.3038 
    121 H121       32.6079   27.4895    8.3485 H         1 UNK         0.0769 
    122 H122       32.4133   30.1595    9.8467 H         1 UNK         0.0811 
    123 H123       33.6947   28.9701   10.0267 H         1 UNK         0.0811 
    124 H124       32.0615   28.5696   10.5267 H         1 UNK         0.0811 
    125 H125       31.6586   30.1239    6.4033 H         1 UNK         0.3204 
    126 H126       34.3508   31.1454    5.8118 H         1 UNK         0.0748 
    127 H127       32.3951   32.7020    5.8601 H         1 UNK         0.0771 
    128 H128       33.1160   32.6483    4.2600 H         1 UNK         0.0771 
    129 H129       31.6171   31.7847    4.5710 H         1 UNK         0.0771 
    130 H130       35.5028   30.7133    3.9652 H         1 UNK         0.2980 
    131 H131       34.4963   28.6161    2.1152 H         1 UNK         0.0545 
    132 H132       34.4871   31.9381    2.0891 H         1 UNK         0.3459 
    133 H133       34.7474   32.1465    0.3769 H         1 UNK         0.3459 
    134 H134       36.9297   28.2370    1.5376 H         1 UNK         0.0616 
    135 H135       37.3825   29.4099    2.7425 H         1 UNK         0.0616 
    136 H136       36.3226   25.0017    3.4205 H         1 UNK         0.0634 
    137 H137       37.0940   25.7405    2.0372 H         1 UNK         0.0634 
@<TRIPOS>BOND
     1    1    2 1    
     2    1   72 1    
     3    1   73 1    
     4    1   74 1    
     5    2    3 2    
     6    2    4 am   BACKBONE|DICT|INTERRES
     7    4    5 1    
     8    4   75 1    
     9    5    6 1    
    10    5   35 1    
    11    5   76 1    
    12    6    7 1    
    13    6   77 1    
    14    6   78 1    
    15    7    8 1    
    16    8    9 1    
    17    8   79 1    
    18    8   80 1    
    19    9   10 ar   
    20    9   14 ar   
    21   10   11 ar   
    22   10   81 1    
    23   11   12 ar   
    24   11   71 1    
    25   12   13 ar   
    26   12   82 1    
    27   13   14 ar   
    28   13   15 1    
    29   14   83 1    
    30   15   16 1    
    31   15   84 1    
    32   15   85 1    
    33   16   17 1    
    34   17   18 1    
    35   17   86 1    
    36   17   87 1    
    37   18   19 1    
    38   18   37 1    
    39   18   88 1    
    40   19   20 am   BACKBONE|DICT|INTERRES
    41   19   89 1    
    42   20   21 2    
    43   20   22 1    
    44   22   23 1    
    45   22   24 1    
    46   22   90 1    
    47   23   91 1    
    48   23   92 1    
    49   23   93 1    
    50   24   25 am   BACKBONE|DICT|INTERRES
    51   24   94 1    
    52   25   26 2    
    53   25   27 1    
    54   27   28 1    
    55   27   29 1    
    56   27   95 1    
    57   28   96 1    
    58   28   97 1    
    59   28   98 1    
    60   29   30 am   BACKBONE|DICT|INTERRES
    61   29   99 1    
    62   30   31 2    
    63   30   32 1    
    64   32   33 1    
    65   32   34 1    
    66   32  100 1    
    67   33  101 1    
    68   33  102 1    
    69   33  103 1    
    70   34   35 am   BACKBONE|DICT|INTERRES
    71   34  104 1    
    72   35   36 2    
    73   37   38 2    
    74   37   39 am   BACKBONE|DICT|INTERRES
    75   39   40 1    
    76   39  105 1    
    77   40   41 1    
    78   40   42 1    
    79   40  106 1    
    80   41  107 1    
    81   41  108 1    
    82   41  109 1    
    83   42   43 2    
    84   42   44 am   BACKBONE|DICT|INTERRES
    85   44   45 1    
    86   44  110 1    
    87   45   46 1    
    88   45   47 1    
    89   45  111 1    
    90   46  112 1    
    91   46  113 1    
    92   46  114 1    
    93   47   48 2    
    94   47   49 am   BACKBONE|DICT|INTERRES
    95   49   50 1    
    96   49  115 1    
    97   50   51 1    
    98   50   52 1    
    99   50  116 1    
   100   51  117 1    
   101   51  118 1    
   102   51  119 1    
   103   52   53 2    
   104   52   54 am   BACKBONE|DICT|INTERRES
   105   54   55 1    
   106   54  120 1    
   107   55   56 1    
   108   55   57 1    
   109   55  121 1    
   110   56  122 1    
   111   56  123 1    
   112   56  124 1    
   113   57   58 2    
   114   57   59 am   BACKBONE|DICT|INTERRES
   115   59   60 1    
   116   59  125 1    
   117   60   61 1    
   118   60   62 1    
   119   60  126 1    
   120   61  127 1    
   121   61  128 1    
   122   61  129 1    
   123   62   63 2    
   124   62   64 am   BACKBONE|DICT|INTERRES
   125   64   65 1    
   126   64  130 1    
   127   65   66 1    
   128   65   69 1    
   129   65  131 1    
   130   66   67 am   BACKBONE|DICT|INTERRES
   131   66   68 2    
   132   67  132 1    
   133   67  133 1    
   134   69   70 1    
   135   69  134 1    
   136   69  135 1    
   137   70   71 1    
   138   71  136 1    
   139   71  137 1    
@<TRIPOS>SUBSTRUCTURE
     1 UNK         1 GROUP             0       ****    0 ROOT    
