@<TRIPOS>MOLECULE
3R136
137   139    1
SMALL
USER_CHARGES


@<TRIPOS>ATOM
      1 CA         34.4657   21.1028   -1.2127 C.3       0 UNK        -0.1979 
      2 C          33.3381   21.3771   -0.2286 C.2       0 UNK         0.4864 
      3 O          33.5949   21.5413    0.9640 O.2       0 UNK        -0.5359 
      4 N          32.0957   21.4265   -0.7186 N.am      1 UNK        -0.4318 
      5 CA         30.8864   21.6966    0.0533 C.3       1 UNK         0.0824 
      6 C6         30.3994   20.4323    0.8108 C.3       12 UNK        -0.0944 
      7 S7         28.9021   20.6827    1.8278 S.3       12 UNK        -0.2672 
      8 C8         29.5921   20.8042    3.5069 C.3       12 UNK         0.0333 
      9 C9         30.1125   22.2031    3.7974 C.ar      12 UNK        -0.0807 
     10 C10        31.4651   22.5091    3.6195 C.ar      12 UNK        -0.0894 
     11 C11        31.9413   23.7938    3.8964 C.ar      12 UNK        -0.0804 
     12 C12        31.0583   24.7706    4.3667 C.ar      12 UNK        -0.0824 
     13 C13        29.7052   24.4753    4.5517 C.ar      12 UNK        -0.0762 
     14 C14        29.2371   23.1907    4.2605 C.ar      12 UNK        -0.0782 
     15 C15        28.7509   25.5366    5.0797 C.3       12 UNK         0.0230 
     16 S16        27.9804   26.4791    3.7288 S.3       12 UNK        -0.2608 
     17 C17        29.3672   27.5446    3.1898 C.3       12 UNK        -0.0989 
     18 CA         28.9279   28.8761    2.5301 C.3       5 UNK         0.0716 
     19 N          28.2105   28.6478    1.2687 N.am      5 UNK        -0.4135 
     20 C          27.7254   29.6000    0.4538 C.2       4 UNK         0.5031 
     21 O          27.8579   30.8069    0.6557 O.2       4 UNK        -0.5229 
     22 CA         26.8954   29.1525   -0.7640 C.3       4 UNK         0.0329 
     23 CB         27.7456   29.2251   -2.0423 C.3       4 UNK        -0.2001 
     24 N          26.3161   27.8118   -0.6499 N.am      4 UNK        -0.4303 
     25 C          25.4949   27.3787    0.3187 C.2       3 UNK         0.5044 
     26 O          25.0761   28.0941    1.2303 O.2       3 UNK        -0.5152 
     27 CA         25.1064   25.8867    0.2875 C.3       3 UNK         0.0319 
     28 CB         23.6572   25.7208   -0.1974 C.3       3 UNK        -0.2001 
     29 N          25.9883   25.0399   -0.5311 N.am      3 UNK        -0.4354 
     30 C          27.2914   24.8323   -0.2950 C.2       2 UNK         0.4964 
     31 O          27.9200   25.3713    0.6179 O.2       2 UNK        -0.5047 
     32 CA         28.0364   23.9225   -1.2742 C.3       2 UNK         0.0288 
     33 CB         28.5793   24.7420   -2.4622 C.3       2 UNK        -0.2113 
     34 N          29.1261   23.2899   -0.5384 N.am      2 UNK        -0.4145 
     35 C          29.8461   22.2386   -0.9402 C.2       1 UNK         0.5006 
     36 O          29.7185   21.6919   -2.0401 O.2       1 UNK        -0.5103 
     37 C          28.1675   29.7791    3.5293 C.2       5 UNK         0.5055 
     38 O          28.8043   30.4918    4.3058 O.2       5 UNK        -0.5220 
     39 N          26.8266   29.7509    3.4783 N.am      6 UNK        -0.4450 
     40 CA         25.9436   30.6089    4.2674 C.3       6 UNK         0.0367 
     41 CB         24.5065   30.0736    4.1668 C.3       6 UNK        -0.1929 
     42 C          25.9969   32.0908    3.8505 C.2       6 UNK         0.5070 
     43 O          25.6717   32.9491    4.6717 O.2       6 UNK        -0.5237 
     44 N          26.3906   32.3713    2.6000 N.am      7 UNK        -0.4739 
     45 CA         26.5611   33.7230    2.0733 C.3       7 UNK         0.0276 
     46 CB         26.1647   33.7636    0.5872 C.3       7 UNK        -0.1927 
     47 C          28.0013   34.2110    2.2780 C.2       7 UNK         0.5013 
     48 O          28.1880   35.2933    2.8363 O.2       7 UNK        -0.5193 
     49 N          28.9900   33.4208    1.8346 N.am      8 UNK        -0.4253 
     50 CA         30.4136   33.7598    1.8945 C.3       8 UNK         0.0242 
     51 CB         30.7373   34.8811    0.8824 C.3       8 UNK        -0.2000 
     52 C          31.2743   32.5250    1.6000 C.2       8 UNK         0.4948 
     53 O          30.7755   31.5484    1.0412 O.2       8 UNK        -0.5275 
     54 N          32.5698   32.6258    1.9330 N.am      9 UNK        -0.4246 
     55 CA         33.6390   31.6641    1.6283 C.3       9 UNK         0.0261 
     56 CB         33.8871   31.5888    0.1052 C.3       9 UNK        -0.1959 
     57 C          33.4372   30.2777    2.2724 C.2       9 UNK         0.5033 
     58 O          33.6790   29.2544    1.6278 O.2       9 UNK        -0.5390 
     59 N          33.0206   30.2666    3.5457 N.am      10 UNK        -0.4215 
     60 CA         32.9523   29.0618    4.3746 C.3       10 UNK         0.0240 
     61 CB         32.1140   29.3541    5.6296 C.3       10 UNK        -0.1982 
     62 C          34.3587   28.5771    4.7694 C.2       10 UNK         0.4970 
     63 O          35.2634   29.3958    4.9499 O.2       10 UNK        -0.4916 
     64 N          34.4999   27.2576    4.9253 N.am      11 UNK        -0.4279 
     65 CA         35.7368   26.5767    5.3414 C.3       11 UNK         0.1003 
     66 C          36.0558   26.6630    6.8641 C.2       11 UNK         0.5709 
     67 N          35.1687   27.1822    7.7053 N.am      11 UNK        -0.7358 
     68 O          37.1390   26.2660    7.2876 O.2       11 UNK        -0.4999 
     69 C69        35.7849   25.1181    4.8065 C.3       12 UNK        -0.0954 
     70 S70        34.3180   24.1258    5.2564 S.3       12 UNK        -0.2268 
     71 C71        33.4058   24.1367    3.6823 C.3       12 UNK         0.0203 
     72 H72        34.9984   20.1956   -0.9286 H         1 UNK         0.0888 
     73 H73        34.0969   20.9749   -2.2303 H         1 UNK         0.0888 
     74 H74        35.1750   21.9300   -1.2101 H         1 UNK         0.0888 
     75 H75        31.9261   21.3048   -1.7098 H         1 UNK         0.3017 
     76 H76        31.1102   22.4831    0.7772 H         1 UNK         0.0873 
     77 H77        30.1881   19.6302    0.1011 H         1 UNK         0.0745 
     78 H78        31.1993   20.0528    1.4477 H         1 UNK         0.0745 
     79 H79        28.8083   20.5526    4.2231 H         1 UNK         0.0705 
     80 H80        30.3767   20.0595    3.6492 H         1 UNK         0.0705 
     81 H81        32.1463   21.7500    3.2587 H         1 UNK         0.1334 
     82 H82        31.4250   25.7615    4.5918 H         1 UNK         0.1417 
     83 H83        28.1894   22.9583    4.3962 H         1 UNK         0.1562 
     84 H84        29.2667   26.2149    5.7611 H         1 UNK         0.0748 
     85 H85        27.9627   25.0633    5.6673 H         1 UNK         0.0748 
     86 H86        29.9846   26.9730    2.4946 H         1 UNK         0.0940 
     87 H87        30.0063   27.7580    4.0476 H         1 UNK         0.0940 
     88 H88        29.8377   29.4168    2.2641 H         1 UNK         0.0703 
     89 H89        28.0311   27.6778    1.0388 H         1 UNK         0.3081 
     90 H90        26.0664   29.8565   -0.8615 H         1 UNK         0.0719 
     91 H91        28.1748   30.2203   -2.1690 H         1 UNK         0.0809 
     92 H92        27.1487   29.0171   -2.9305 H         1 UNK         0.0809 
     93 H93        28.5732   28.5148   -2.0172 H         1 UNK         0.0809 
     94 H94        26.5981   27.1417   -1.3495 H         1 UNK         0.2990 
     95 H95        25.1668   25.5240    1.3160 H         1 UNK         0.0690 
     96 H96        23.5380   26.0448   -1.2321 H         1 UNK         0.0788 
     97 H97        22.9715   26.3132    0.4104 H         1 UNK         0.0788 
     98 H98        23.3311   24.6828   -0.1290 H         1 UNK         0.0788 
     99 H99        25.5570   24.5740   -1.3173 H         1 UNK         0.2993 
    100 H100       27.3558   23.1473   -1.6331 H         1 UNK         0.0949 
    101 H101       27.7708   25.2407   -2.9981 H         1 UNK         0.0767 
    102 H102       29.2782   25.5121   -2.1324 H         1 UNK         0.0767 
    103 H103       29.0968   24.1096   -3.1836 H         1 UNK         0.0767 
    104 H104       29.2681   23.6809    0.3862 H         1 UNK         0.3013 
    105 H105       26.3819   29.1292    2.8126 H         1 UNK         0.3121 
    106 H106       26.2599   30.5499    5.3110 H         1 UNK         0.0774 
    107 H107       23.8228   30.6727    4.7699 H         1 UNK         0.0815 
    108 H108       24.1402   30.0944    3.1393 H         1 UNK         0.0815 
    109 H109       24.4393   29.0462    4.5251 H         1 UNK         0.0815 
    110 H110       26.7116   31.6162    2.0012 H         1 UNK         0.2987 
    111 H111       25.8983   34.4090    2.6060 H         1 UNK         0.0949 
    112 H112       26.7943   33.1192   -0.0266 H         1 UNK         0.0806 
    113 H113       25.1300   33.4511    0.4459 H         1 UNK         0.0806 
    114 H114       26.2543   34.7757    0.1905 H         1 UNK         0.0806 
    115 H115       28.7777   32.5194    1.4107 H         1 UNK         0.3010 
    116 H116       30.6456   34.0999    2.9061 H         1 UNK         0.0829 
    117 H117       30.2000   35.8014    1.1104 H         1 UNK         0.0813 
    118 H118       31.7994   35.1287    0.8862 H         1 UNK         0.0813 
    119 H119       30.4762   34.5864   -0.1349 H         1 UNK         0.0813 
    120 H120       32.8727   33.4728    2.3949 H         1 UNK         0.3038 
    121 H121       34.5458   32.0682    2.0811 H         1 UNK         0.0769 
    122 H122       33.0421   31.1433   -0.4209 H         1 UNK         0.0811 
    123 H123       34.7649   30.9815   -0.1189 H         1 UNK         0.0811 
    124 H124       34.0626   32.5776   -0.3184 H         1 UNK         0.0811 
    125 H125       32.8715   31.1499    4.0109 H         1 UNK         0.3204 
    126 H126       32.4572   28.2784    3.7967 H         1 UNK         0.0748 
    127 H127       31.9868   28.4563    6.2358 H         1 UNK         0.0771 
    128 H128       32.5816   30.1112    6.2609 H         1 UNK         0.0771 
    129 H129       31.1174   29.7085    5.3687 H         1 UNK         0.0771 
    130 H130       33.7031   26.6535    4.8003 H         1 UNK         0.2980 
    131 H131       36.5634   27.1031    4.8602 H         1 UNK         0.0545 
    132 H132       34.2792   27.5142    7.3723 H         1 UNK         0.3459 
    133 H133       35.3941   27.2366    8.6860 H         1 UNK         0.3459 
    134 H134       35.8843   25.1332    3.7200 H         1 UNK         0.0616 
    135 H135       36.6756   24.5998    5.1662 H         1 UNK         0.0616 
    136 H136       33.4787   25.1179    3.2111 H         1 UNK         0.0634 
    137 H137       33.8731   23.4309    2.9940 H         1 UNK         0.0634 
@<TRIPOS>BOND
     1    1    2 1    
     2    1   72 1    
     3    1   73 1    
     4    1   74 1    
     5    2    3 2    
     6    2    4 am   BACKBONE|DICT|INTERRES
     7    4    5 1    
     8    4   75 1    
     9    5    6 1    
    10    5   35 1    
    11    5   76 1    
    12    6    7 1    
    13    6   77 1    
    14    6   78 1    
    15    7    8 1    
    16    8    9 1    
    17    8   79 1    
    18    8   80 1    
    19    9   10 ar   
    20    9   14 ar   
    21   10   11 ar   
    22   10   81 1    
    23   11   12 ar   
    24   11   71 1    
    25   12   13 ar   
    26   12   82 1    
    27   13   14 ar   
    28   13   15 1    
    29   14   83 1    
    30   15   16 1    
    31   15   84 1    
    32   15   85 1    
    33   16   17 1    
    34   17   18 1    
    35   17   86 1    
    36   17   87 1    
    37   18   19 1    
    38   18   37 1    
    39   18   88 1    
    40   19   20 am   BACKBONE|DICT|INTERRES
    41   19   89 1    
    42   20   21 2    
    43   20   22 1    
    44   22   23 1    
    45   22   24 1    
    46   22   90 1    
    47   23   91 1    
    48   23   92 1    
    49   23   93 1    
    50   24   25 am   BACKBONE|DICT|INTERRES
    51   24   94 1    
    52   25   26 2    
    53   25   27 1    
    54   27   28 1    
    55   27   29 1    
    56   27   95 1    
    57   28   96 1    
    58   28   97 1    
    59   28   98 1    
    60   29   30 am   BACKBONE|DICT|INTERRES
    61   29   99 1    
    62   30   31 2    
    63   30   32 1    
    64   32   33 1    
    65   32   34 1    
    66   32  100 1    
    67   33  101 1    
    68   33  102 1    
    69   33  103 1    
    70   34   35 am   BACKBONE|DICT|INTERRES
    71   34  104 1    
    72   35   36 2    
    73   37   38 2    
    74   37   39 am   BACKBONE|DICT|INTERRES
    75   39   40 1    
    76   39  105 1    
    77   40   41 1    
    78   40   42 1    
    79   40  106 1    
    80   41  107 1    
    81   41  108 1    
    82   41  109 1    
    83   42   43 2    
    84   42   44 am   BACKBONE|DICT|INTERRES
    85   44   45 1    
    86   44  110 1    
    87   45   46 1    
    88   45   47 1    
    89   45  111 1    
    90   46  112 1    
    91   46  113 1    
    92   46  114 1    
    93   47   48 2    
    94   47   49 am   BACKBONE|DICT|INTERRES
    95   49   50 1    
    96   49  115 1    
    97   50   51 1    
    98   50   52 1    
    99   50  116 1    
   100   51  117 1    
   101   51  118 1    
   102   51  119 1    
   103   52   53 2    
   104   52   54 am   BACKBONE|DICT|INTERRES
   105   54   55 1    
   106   54  120 1    
   107   55   56 1    
   108   55   57 1    
   109   55  121 1    
   110   56  122 1    
   111   56  123 1    
   112   56  124 1    
   113   57   58 2    
   114   57   59 am   BACKBONE|DICT|INTERRES
   115   59   60 1    
   116   59  125 1    
   117   60   61 1    
   118   60   62 1    
   119   60  126 1    
   120   61  127 1    
   121   61  128 1    
   122   61  129 1    
   123   62   63 2    
   124   62   64 am   BACKBONE|DICT|INTERRES
   125   64   65 1    
   126   64  130 1    
   127   65   66 1    
   128   65   69 1    
   129   65  131 1    
   130   66   67 am   BACKBONE|DICT|INTERRES
   131   66   68 2    
   132   67  132 1    
   133   67  133 1    
   134   69   70 1    
   135   69  134 1    
   136   69  135 1    
   137   70   71 1    
   138   71  136 1    
   139   71  137 1    
@<TRIPOS>SUBSTRUCTURE
     1 UNK         1 GROUP             0       ****    0 ROOT    
