@<TRIPOS>MOLECULE
3R136
137   139    1
SMALL
USER_CHARGES


@<TRIPOS>ATOM
      1 CA         28.4545   22.2830   -1.1336 C.3       0 UNK        -0.1979 
      2 C          28.8342   23.5614   -1.8663 C.2       0 UNK         0.4864 
      3 O          28.6097   23.6672   -3.0733 O.2       0 UNK        -0.5359 
      4 N          29.4166   24.5295   -1.1482 N.am      1 UNK        -0.4318 
      5 CA         29.7649   25.8587   -1.6498 C.3       1 UNK         0.0824 
      6 C6         30.8584   26.5477   -0.7912 C.3       12 UNK        -0.0944 
      7 S7         30.5931   26.4498    1.0132 S.3       12 UNK        -0.2672 
      8 C8         32.0278   25.4580    1.5328 C.3       12 UNK         0.0333 
      9 C9         32.0342   25.2591    3.0404 C.ar      12 UNK        -0.0807 
     10 C10        33.0121   25.8613    3.8385 C.ar      12 UNK        -0.0894 
     11 C11        33.0040   25.6801    5.2256 C.ar      12 UNK        -0.0804 
     12 C12        31.9962   24.9069    5.8107 C.ar      12 UNK        -0.0824 
     13 C13        31.0027   24.3108    5.0275 C.ar      12 UNK        -0.0762 
     14 C14        31.0497   24.4684    3.6379 C.ar      12 UNK        -0.0782 
     15 C15        29.9061   23.4962    5.7135 C.3       12 UNK         0.0230 
     16 S16        28.3023   23.4543    4.8361 S.3       12 UNK        -0.2608 
     17 C17        27.8287   25.2205    4.7734 C.3       12 UNK        -0.0989 
     18 CA         27.5284   25.7060    3.3243 C.3       5 UNK         0.0716 
     19 N          26.5188   24.8911    2.6343 N.am      5 UNK        -0.4135 
     20 C          25.2341   24.7278    2.9783 C.2       4 UNK         0.5031 
     21 O          24.6964   25.2824    3.9388 O.2       4 UNK        -0.5229 
     22 CA         24.4088   23.7934    2.0695 C.3       4 UNK         0.0329 
     23 CB         23.1200   23.2995    2.7531 C.3       4 UNK        -0.2001 
     24 N          24.0549   24.4309    0.7983 N.am      4 UNK        -0.4303 
     25 C          24.9126   24.7211   -0.1877 C.2       3 UNK         0.5044 
     26 O          26.1158   24.4539   -0.1336 O.2       3 UNK        -0.5152 
     27 CA         24.3555   25.4347   -1.4298 C.3       3 UNK         0.0319 
     28 CB         23.0759   26.2593   -1.1641 C.3       3 UNK        -0.2001 
     29 N          25.4219   26.2737   -1.9652 N.am      3 UNK        -0.4354 
     30 C          25.5122   26.7812   -3.1961 C.2       2 UNK         0.4964 
     31 O          24.6298   26.6710   -4.0481 O.2       2 UNK        -0.5047 
     32 CA         26.8188   27.5123   -3.5610 C.3       2 UNK         0.0288 
     33 CB         26.7638   29.0017   -3.1701 C.3       2 UNK        -0.2113 
     34 N          28.0441   26.8586   -3.0719 N.am      2 UNK        -0.4145 
     35 C          28.4854   26.7056   -1.8136 C.2       1 UNK         0.5006 
     36 O          27.9062   27.1534   -0.8184 O.2       1 UNK        -0.5103 
     37 C          27.1797   27.2107    3.2493 C.2       5 UNK         0.5055 
     38 O          27.3061   27.9243    4.2463 O.2       5 UNK        -0.5220 
     39 N          26.7047   27.6597    2.0778 N.am      6 UNK        -0.4450 
     40 CA         26.1976   29.0157    1.8656 C.3       6 UNK         0.0367 
     41 CB         25.1490   29.0115    0.7435 C.3       6 UNK        -0.1929 
     42 C          27.3192   30.0204    1.5777 C.2       6 UNK         0.5070 
     43 O          27.3755   31.0639    2.2281 O.2       6 UNK        -0.5237 
     44 N          28.2078   29.6885    0.6332 N.am      7 UNK        -0.4739 
     45 CA         29.3515   30.5209    0.2429 C.3       7 UNK         0.0276 
     46 CB         29.5078   30.4894   -1.2880 C.3       7 UNK        -0.1927 
     47 C          30.6282   30.0918    0.9865 C.2       7 UNK         0.5013 
     48 O          31.7004   30.0085    0.3838 O.2       7 UNK        -0.5193 
     49 N          30.4931   29.8185    2.2906 N.am      8 UNK        -0.4253 
     50 CA         31.5227   29.2786    3.1819 C.3       8 UNK         0.0242 
     51 CB         30.8260   28.6447    4.3989 C.3       8 UNK        -0.2000 
     52 C          32.6039   30.3033    3.5792 C.2       8 UNK         0.4948 
     53 O          32.9360   30.4297    4.7586 O.2       8 UNK        -0.5275 
     54 N          33.1726   31.0011    2.5878 N.am      9 UNK        -0.4246 
     55 CA         34.2099   32.0299    2.7411 C.3       9 UNK         0.0261 
     56 CB         34.4854   32.6697    1.3708 C.3       9 UNK        -0.1959 
     57 C          35.5206   31.5249    3.3756 C.2       9 UNK         0.5033 
     58 O          36.2810   32.3302    3.9140 O.2       9 UNK        -0.5390 
     59 N          35.7505   30.2064    3.3196 N.am      10 UNK        -0.4215 
     60 CA         36.8634   29.5099    3.9631 C.3       10 UNK         0.0240 
     61 CB         36.9855   28.1026    3.3537 C.3       10 UNK        -0.1982 
     62 C          36.7575   29.4284    5.4998 C.2       10 UNK         0.4970 
     63 O          37.7694   29.1222    6.1326 O.2       10 UNK        -0.4916 
     64 N          35.5736   29.6805    6.0777 N.am      11 UNK        -0.4279 
     65 CA         35.3367   29.6160    7.5299 C.3       11 UNK         0.1003 
     66 C          34.3942   30.7181    8.0886 C.2       11 UNK         0.5709 
     67 N          33.5804   31.3874    7.2828 N.am      11 UNK        -0.7358 
     68 O          34.4262   30.9962    9.2854 O.2       11 UNK        -0.4999 
     69 C69        34.9403   28.1905    8.0017 C.3       12 UNK        -0.0954 
     70 S70        33.4129   27.5600    7.2244 S.3       12 UNK        -0.2268 
     71 C71        34.0880   26.3046    6.0941 C.3       12 UNK         0.0203 
     72 H72        28.9736   21.4298   -1.5691 H         1 UNK         0.0888 
     73 H73        28.7056   22.3316   -0.0741 H         1 UNK         0.0888 
     74 H74        27.3816   22.1116   -1.2171 H         1 UNK         0.0888 
     75 H75        29.5456   24.4093   -0.1543 H         1 UNK         0.3017 
     76 H76        30.1997   25.7295   -2.6436 H         1 UNK         0.0873 
     77 H77        31.8226   26.0939   -1.0244 H         1 UNK         0.0745 
     78 H78        30.9683   27.5970   -1.0677 H         1 UNK         0.0745 
     79 H79        32.0008   24.4870    1.0362 H         1 UNK         0.0705 
     80 H80        32.9434   25.9535    1.2057 H         1 UNK         0.0705 
     81 H81        33.7806   26.4673    3.3797 H         1 UNK         0.1334 
     82 H82        31.9847   24.7772    6.8845 H         1 UNK         0.1417 
     83 H83        30.3055   23.9968    3.0122 H         1 UNK         0.1562 
     84 H84        29.7299   23.8811    6.7193 H         1 UNK         0.0748 
     85 H85        30.2614   22.4721    5.8330 H         1 UNK         0.0748 
     86 H86        28.6270   25.8217    5.2127 H         1 UNK         0.0940 
     87 H87        26.9593   25.3652    5.4169 H         1 UNK         0.0940 
     88 H88        28.4448   25.5919    2.7477 H         1 UNK         0.0703 
     89 H89        26.8109   24.4657    1.7606 H         1 UNK         0.3081 
     90 H90        25.0239   22.9163    1.8555 H         1 UNK         0.0719 
     91 H91        23.3453   22.8130    3.7032 H         1 UNK         0.0809 
     92 H92        22.4313   24.1191    2.9622 H         1 UNK         0.0809 
     93 H93        22.5965   22.5706    2.1342 H         1 UNK         0.0809 
     94 H94        23.0906   24.7097    0.6903 H         1 UNK         0.2990 
     95 H95        24.1296   24.6605   -2.1655 H         1 UNK         0.0690 
     96 H96        22.7591   26.8037   -2.0535 H         1 UNK         0.0788 
     97 H97        23.2195   26.9881   -0.3681 H         1 UNK         0.0788 
     98 H98        22.2407   25.6178   -0.8814 H         1 UNK         0.0788 
     99 H99        26.2307   26.3748   -1.3564 H         1 UNK         0.2993 
    100 H100       26.8871   27.4719   -4.6495 H         1 UNK         0.0949 
    101 H101       26.7502   29.1477   -2.0910 H         1 UNK         0.0767 
    102 H102       27.6207   29.5420   -3.5716 H         1 UNK         0.0767 
    103 H103       25.8674   29.4765   -3.5712 H         1 UNK         0.0767 
    104 H104       28.5672   26.3792   -3.7926 H         1 UNK         0.3013 
    105 H105       26.7087   27.0402    1.2786 H         1 UNK         0.3121 
    106 H106       25.6932   29.3474    2.7763 H         1 UNK         0.0774 
    107 H107       24.2605   28.4624    1.0522 H         1 UNK         0.0815 
    108 H108       24.8299   30.0255    0.4983 H         1 UNK         0.0815 
    109 H109       25.5280   28.5566   -0.1706 H         1 UNK         0.0815 
    110 H110       28.1239   28.7834    0.1753 H         1 UNK         0.2987 
    111 H111       29.1699   31.5608    0.5234 H         1 UNK         0.0949 
    112 H112       29.6656   29.4787   -1.6611 H         1 UNK         0.0806 
    113 H113       28.6230   30.8951   -1.7773 H         1 UNK         0.0806 
    114 H114       30.3551   31.0951   -1.6119 H         1 UNK         0.0806 
    115 H115       29.5782   29.9535    2.6980 H         1 UNK         0.3010 
    116 H116       32.0434   28.4806    2.6503 H         1 UNK         0.0829 
    117 H117       30.2412   29.3750    4.9588 H         1 UNK         0.0813 
    118 H118       31.5507   28.2114    5.0862 H         1 UNK         0.0813 
    119 H119       30.1608   27.8365    4.0950 H         1 UNK         0.0813 
    120 H120       32.8426   30.8087    1.6441 H         1 UNK         0.3038 
    121 H121       33.8096   32.7987    3.4052 H         1 UNK         0.0769 
    122 H122       33.5837   33.1184    0.9536 H         1 UNK         0.0811 
    123 H123       34.8597   31.9387    0.6529 H         1 UNK         0.0811 
    124 H124       35.2320   33.4612    1.4510 H         1 UNK         0.0811 
    125 H125       35.0714   29.6343    2.8406 H         1 UNK         0.3204 
    126 H126       37.7799   30.0586    3.7356 H         1 UNK         0.0748 
    127 H127       36.0843   27.5110    3.5141 H         1 UNK         0.0771 
    128 H128       37.1687   28.1504    2.2800 H         1 UNK         0.0771 
    129 H129       37.8183   27.5540    3.7964 H         1 UNK         0.0771 
    130 H130       34.7716   29.9297    5.5101 H         1 UNK         0.2980 
    131 H131       36.2860   29.8433    8.0191 H         1 UNK         0.0545 
    132 H132       33.4324   31.0983    6.3182 H         1 UNK         0.3459 
    133 H133       32.9965   32.1070    7.6764 H         1 UNK         0.3459 
    134 H134       34.8048   28.1705    9.0844 H         1 UNK         0.0616 
    135 H135       35.7592   27.4983    7.8006 H         1 UNK         0.0616 
    136 H136       34.8602   26.7636    5.4762 H         1 UNK         0.0634 
    137 H137       34.5778   25.5226    6.6759 H         1 UNK         0.0634 
@<TRIPOS>BOND
     1    1    2 1    
     2    1   72 1    
     3    1   73 1    
     4    1   74 1    
     5    2    3 2    
     6    2    4 am   BACKBONE|DICT|INTERRES
     7    4    5 1    
     8    4   75 1    
     9    5    6 1    
    10    5   35 1    
    11    5   76 1    
    12    6    7 1    
    13    6   77 1    
    14    6   78 1    
    15    7    8 1    
    16    8    9 1    
    17    8   79 1    
    18    8   80 1    
    19    9   10 ar   
    20    9   14 ar   
    21   10   11 ar   
    22   10   81 1    
    23   11   12 ar   
    24   11   71 1    
    25   12   13 ar   
    26   12   82 1    
    27   13   14 ar   
    28   13   15 1    
    29   14   83 1    
    30   15   16 1    
    31   15   84 1    
    32   15   85 1    
    33   16   17 1    
    34   17   18 1    
    35   17   86 1    
    36   17   87 1    
    37   18   19 1    
    38   18   37 1    
    39   18   88 1    
    40   19   20 am   BACKBONE|DICT|INTERRES
    41   19   89 1    
    42   20   21 2    
    43   20   22 1    
    44   22   23 1    
    45   22   24 1    
    46   22   90 1    
    47   23   91 1    
    48   23   92 1    
    49   23   93 1    
    50   24   25 am   BACKBONE|DICT|INTERRES
    51   24   94 1    
    52   25   26 2    
    53   25   27 1    
    54   27   28 1    
    55   27   29 1    
    56   27   95 1    
    57   28   96 1    
    58   28   97 1    
    59   28   98 1    
    60   29   30 am   BACKBONE|DICT|INTERRES
    61   29   99 1    
    62   30   31 2    
    63   30   32 1    
    64   32   33 1    
    65   32   34 1    
    66   32  100 1    
    67   33  101 1    
    68   33  102 1    
    69   33  103 1    
    70   34   35 am   BACKBONE|DICT|INTERRES
    71   34  104 1    
    72   35   36 2    
    73   37   38 2    
    74   37   39 am   BACKBONE|DICT|INTERRES
    75   39   40 1    
    76   39  105 1    
    77   40   41 1    
    78   40   42 1    
    79   40  106 1    
    80   41  107 1    
    81   41  108 1    
    82   41  109 1    
    83   42   43 2    
    84   42   44 am   BACKBONE|DICT|INTERRES
    85   44   45 1    
    86   44  110 1    
    87   45   46 1    
    88   45   47 1    
    89   45  111 1    
    90   46  112 1    
    91   46  113 1    
    92   46  114 1    
    93   47   48 2    
    94   47   49 am   BACKBONE|DICT|INTERRES
    95   49   50 1    
    96   49  115 1    
    97   50   51 1    
    98   50   52 1    
    99   50  116 1    
   100   51  117 1    
   101   51  118 1    
   102   51  119 1    
   103   52   53 2    
   104   52   54 am   BACKBONE|DICT|INTERRES
   105   54   55 1    
   106   54  120 1    
   107   55   56 1    
   108   55   57 1    
   109   55  121 1    
   110   56  122 1    
   111   56  123 1    
   112   56  124 1    
   113   57   58 2    
   114   57   59 am   BACKBONE|DICT|INTERRES
   115   59   60 1    
   116   59  125 1    
   117   60   61 1    
   118   60   62 1    
   119   60  126 1    
   120   61  127 1    
   121   61  128 1    
   122   61  129 1    
   123   62   63 2    
   124   62   64 am   BACKBONE|DICT|INTERRES
   125   64   65 1    
   126   64  130 1    
   127   65   66 1    
   128   65   69 1    
   129   65  131 1    
   130   66   67 am   BACKBONE|DICT|INTERRES
   131   66   68 2    
   132   67  132 1    
   133   67  133 1    
   134   69   70 1    
   135   69  134 1    
   136   69  135 1    
   137   70   71 1    
   138   71  136 1    
   139   71  137 1    
@<TRIPOS>SUBSTRUCTURE
     1 UNK         1 GROUP             0       ****    0 ROOT    
