@<TRIPOS>MOLECULE
3R136
137   139    1
SMALL
USER_CHARGES


@<TRIPOS>ATOM
      1 CA         27.7675   20.1091    5.1360 C.3       0 UNK        -0.1979 
      2 C          27.9337   19.8395    3.6475 C.2       0 UNK         0.4864 
      3 O          27.3778   18.8658    3.1360 O.2       0 UNK        -0.5359 
      4 N          28.7002   20.6899    2.9540 N.am      1 UNK        -0.4318 
      5 CA         28.9079   20.6438    1.5041 C.3       1 UNK         0.0824 
      6 C6         30.2827   21.2433    1.1020 C.3       12 UNK        -0.0944 
      7 S7         30.5447   22.9782    1.6120 S.3       12 UNK        -0.2672 
      8 C8         31.6430   22.7501    3.0448 C.3       12 UNK         0.0333 
      9 C9         32.0495   24.0801    3.6608 C.ar      12 UNK        -0.0807 
     10 C10        33.3834   24.4989    3.6183 C.ar      12 UNK        -0.0894 
     11 C11        33.7670   25.7060    4.2112 C.ar      12 UNK        -0.0804 
     12 C12        32.8062   26.4938    4.8506 C.ar      12 UNK        -0.0824 
     13 C13        31.4687   26.0897    4.8924 C.ar      12 UNK        -0.0762 
     14 C14        31.0957   24.8805    4.2988 C.ar      12 UNK        -0.0782 
     15 C15        30.4384   26.9592    5.5947 C.3       12 UNK         0.0230 
     16 S16        30.0064   28.4153    4.5978 S.3       12 UNK        -0.2608 
     17 C17        28.7243   27.7530    3.4802 C.3       12 UNK        -0.0989 
     18 CA         28.0489   28.8809    2.6553 C.3       5 UNK         0.0716 
     19 N          27.3328   28.3495    1.4922 N.am      5 UNK        -0.4135 
     20 C          27.0067   29.0413    0.3926 C.2       4 UNK         0.5031 
     21 O          27.3173   30.2218    0.2134 O.2       4 UNK        -0.5229 
     22 CA         26.1966   28.2872   -0.6785 C.3       4 UNK         0.0329 
     23 CB         25.6312   29.2276   -1.7597 C.3       4 UNK        -0.2001 
     24 N          26.9993   27.2498   -1.3260 N.am      4 UNK        -0.4303 
     25 C          27.3003   26.0621   -0.7887 C.2       3 UNK         0.5044 
     26 O          26.9308   25.7036    0.3330 O.2       3 UNK        -0.5152 
     27 CA         28.2041   25.1518   -1.6356 C.3       3 UNK         0.0319 
     28 CB         29.6790   25.4277   -1.3117 C.3       3 UNK        -0.2001 
     29 N          27.9226   23.7313   -1.4206 N.am      3 UNK        -0.4354 
     30 C          26.7932   23.1108   -1.7929 C.2       2 UNK         0.4964 
     31 O          25.8809   23.6721   -2.4021 O.2       2 UNK        -0.5047 
     32 CA         26.6532   21.6084   -1.4719 C.3       2 UNK         0.0288 
     33 CB         26.6606   20.7775   -2.7672 C.3       2 UNK        -0.2113 
     34 N          27.6845   21.0813   -0.5718 N.am      2 UNK        -0.4145 
     35 C          27.7280   21.2969    0.7501 C.2       1 UNK         0.5006 
     36 O          26.8967   21.9797    1.3553 O.2       1 UNK        -0.5103 
     37 C          27.1415   29.8194    3.4882 C.2       5 UNK         0.5055 
     38 O          26.7780   29.4991    4.6216 O.2       5 UNK        -0.5220 
     39 N          26.7711   30.9618    2.8936 N.am      6 UNK        -0.4450 
     40 CA         26.0334   32.0531    3.5376 C.3       6 UNK         0.0367 
     41 CB         25.4363   32.9658    2.4548 C.3       6 UNK        -0.1929 
     42 C          26.9184   32.8644    4.5016 C.2       6 UNK         0.5070 
     43 O          26.4060   33.4438    5.4595 O.2       6 UNK        -0.5237 
     44 N          28.2282   32.8713    4.2379 N.am      7 UNK        -0.4739 
     45 CA         29.2877   33.3749    5.1008 C.3       7 UNK         0.0276 
     46 CB         29.7537   34.7517    4.5998 C.3       7 UNK        -0.1927 
     47 C          30.4239   32.3506    5.0322 C.2       7 UNK         0.5013 
     48 O          30.6062   31.7307    3.9811 O.2       7 UNK        -0.5193 
     49 N          31.1768   32.2073    6.1309 N.am      8 UNK        -0.4253 
     50 CA         32.1931   31.1663    6.3499 C.3       8 UNK         0.0242 
     51 CB         32.7893   31.3397    7.7568 C.3       8 UNK        -0.2000 
     52 C          33.3192   31.0773    5.3010 C.2       8 UNK         0.4948 
     53 O          33.9563   30.0297    5.2014 O.2       8 UNK        -0.5275 
     54 N          33.5513   32.1605    4.5483 N.am      9 UNK        -0.4246 
     55 CA         34.5079   32.2151    3.4430 C.3       9 UNK         0.0261 
     56 CB         34.8479   33.6857    3.1499 C.3       9 UNK        -0.1959 
     57 C          34.0142   31.5164    2.1614 C.2       9 UNK         0.5033 
     58 O          34.8475   31.1527    1.3293 O.2       9 UNK        -0.5390 
     59 N          32.6938   31.3434    1.9944 N.am      10 UNK        -0.4215 
     60 CA         32.0746   30.7610    0.7986 C.3       10 UNK         0.0240 
     61 CB         30.6782   31.3792    0.5969 C.3       10 UNK        -0.1982 
     62 C          32.0619   29.2208    0.8518 C.2       10 UNK         0.4970 
     63 O          30.9992   28.6036    0.7675 O.2       10 UNK        -0.4916 
     64 N          33.2559   28.6364    0.9968 N.am      11 UNK        -0.4279 
     65 CA         33.5065   27.1901    1.0412 C.3       11 UNK         0.1003 
     66 C          33.1506   26.4600   -0.2815 C.2       11 UNK         0.5709 
     67 N          32.8103   25.1808   -0.2045 N.am      11 UNK        -0.7358 
     68 O          33.2369   27.0189   -1.3740 O.2       11 UNK        -0.4999 
     69 C69        34.9755   26.8829    1.4378 C.3       12 UNK        -0.0954 
     70 S70        35.4433   27.5917    3.0510 S.3       12 UNK        -0.2268 
     71 C71        35.2173   26.1653    4.1601 C.3       12 UNK         0.0203 
     72 H72        28.3279   20.9872    5.4567 H         1 UNK         0.0888 
     73 H73        26.7164   20.2731    5.3719 H         1 UNK         0.0888 
     74 H74        28.1178   19.2542    5.7138 H         1 UNK         0.0888 
     75 H75        29.0809   21.5041    3.4125 H         1 UNK         0.3017 
     76 H76        28.9194   19.5937    1.2029 H         1 UNK         0.0873 
     77 H77        31.0776   20.6254    1.5226 H         1 UNK         0.0745 
     78 H78        30.4280   21.1855    0.0220 H         1 UNK         0.0745 
     79 H79        32.5243   22.1878    2.7319 H         1 UNK         0.0705 
     80 H80        31.1423   22.1435    3.8003 H         1 UNK         0.0705 
     81 H81        34.1256   23.8840    3.1275 H         1 UNK         0.1334 
     82 H82        33.0984   27.4335    5.3010 H         1 UNK         0.1417 
     83 H83        30.0632   24.5601    4.3304 H         1 UNK         0.1562 
     84 H84        30.8478   27.2991    6.5471 H         1 UNK         0.0748 
     85 H85        29.5386   26.3913    5.8362 H         1 UNK         0.0748 
     86 H86        27.9885   27.1811    4.0485 H         1 UNK         0.0940 
     87 H87        29.2156   27.0451    2.8097 H         1 UNK         0.0940 
     88 H88        28.8569   29.4999    2.2651 H         1 UNK         0.0703 
     89 H89        27.0720   27.3694    1.5211 H         1 UNK         0.3081 
     90 H90        25.3491   27.8154   -0.1762 H         1 UNK         0.0719 
     91 H91        26.4240   29.7238   -2.3212 H         1 UNK         0.0809 
     92 H92        25.0054   28.6859   -2.4693 H         1 UNK         0.0809 
     93 H93        25.0118   30.0068   -1.3133 H         1 UNK         0.0809 
     94 H94        27.3812   27.4818   -2.2318 H         1 UNK         0.2990 
     95 H95        28.0329   25.3700   -2.6920 H         1 UNK         0.0690 
     96 H96        29.8977   25.2506   -0.2579 H         1 UNK         0.0788 
     97 H97        29.9423   26.4656   -1.5217 H         1 UNK         0.0788 
     98 H98        30.3425   24.7997   -1.9060 H         1 UNK         0.0788 
     99 H99        28.6019   23.2124   -0.8850 H         1 UNK         0.2993 
    100 H100       25.6811   21.4783   -0.9907 H         1 UNK         0.0949 
    101 H101       27.6095   20.8655   -3.2979 H         1 UNK         0.0767 
    102 H102       26.4850   19.7210   -2.5628 H         1 UNK         0.0767 
    103 H103       25.8748   21.1064   -3.4489 H         1 UNK         0.0767 
    104 H104       28.4012   20.5113   -0.9985 H         1 UNK         0.3013 
    105 H105       27.0434   31.0891    1.9217 H         1 UNK         0.3121 
    106 H106       25.2140   31.6239    4.1182 H         1 UNK         0.0774 
    107 H107       24.8600   33.7763    2.9030 H         1 UNK         0.0815 
    108 H108       26.2116   33.4198    1.8361 H         1 UNK         0.0815 
    109 H109       24.7629   32.4145    1.7982 H         1 UNK         0.0815 
    110 H110       28.5681   32.3127    3.4652 H         1 UNK         0.2987 
    111 H111       28.9327   33.4510    6.1313 H         1 UNK         0.0949 
    112 H112       30.1381   34.7014    3.5800 H         1 UNK         0.0806 
    113 H113       28.9364   35.4731    4.6130 H         1 UNK         0.0806 
    114 H114       30.5485   35.1505    5.2312 H         1 UNK         0.0806 
    115 H115       30.9694   32.7917    6.9284 H         1 UNK         0.3010 
    116 H116       31.6723   30.2076    6.3228 H         1 UNK         0.0829 
    117 H117       33.5262   30.5632    7.9684 H         1 UNK         0.0813 
    118 H118       33.2905   32.3022    7.8660 H         1 UNK         0.0813 
    119 H119       32.0211   31.2691    8.5272 H         1 UNK         0.0813 
    120 H120       32.9805   32.9783    4.7030 H         1 UNK         0.3038 
    121 H121       35.4248   31.7100    3.7553 H         1 UNK         0.0769 
    122 H122       35.5851   33.7634    2.3494 H         1 UNK         0.0811 
    123 H123       35.2711   34.1781    4.0257 H         1 UNK         0.0811 
    124 H124       33.9680   34.2499    2.8378 H         1 UNK         0.0811 
    125 H125       32.0591   31.5778    2.7553 H         1 UNK         0.3204 
    126 H126       32.6681   31.0339   -0.0767 H         1 UNK         0.0748 
    127 H127       30.1764   30.9501   -0.2716 H         1 UNK         0.0771 
    128 H128       30.0339   31.2168    1.4584 H         1 UNK         0.0771 
    129 H129       30.7440   32.4547    0.4332 H         1 UNK         0.0771 
    130 H130       34.0703   29.2350    1.0670 H         1 UNK         0.2980 
    131 H131       32.8458   26.7904    1.8119 H         1 UNK         0.0545 
    132 H132       32.7185   24.7172    0.6857 H         1 UNK         0.3459 
    133 H133       32.6068   24.6795   -1.0534 H         1 UNK         0.3459 
    134 H134       35.1541   25.8064    1.4644 H         1 UNK         0.0616 
    135 H135       35.6603   27.2823    0.6876 H         1 UNK         0.0616 
    136 H136       35.5399   26.4473    5.1633 H         1 UNK         0.0634 
    137 H137       35.8745   25.3542    3.8428 H         1 UNK         0.0634 
@<TRIPOS>BOND
     1    1    2 1    
     2    1   72 1    
     3    1   73 1    
     4    1   74 1    
     5    2    3 2    
     6    2    4 am   BACKBONE|DICT|INTERRES
     7    4    5 1    
     8    4   75 1    
     9    5    6 1    
    10    5   35 1    
    11    5   76 1    
    12    6    7 1    
    13    6   77 1    
    14    6   78 1    
    15    7    8 1    
    16    8    9 1    
    17    8   79 1    
    18    8   80 1    
    19    9   10 ar   
    20    9   14 ar   
    21   10   11 ar   
    22   10   81 1    
    23   11   12 ar   
    24   11   71 1    
    25   12   13 ar   
    26   12   82 1    
    27   13   14 ar   
    28   13   15 1    
    29   14   83 1    
    30   15   16 1    
    31   15   84 1    
    32   15   85 1    
    33   16   17 1    
    34   17   18 1    
    35   17   86 1    
    36   17   87 1    
    37   18   19 1    
    38   18   37 1    
    39   18   88 1    
    40   19   20 am   BACKBONE|DICT|INTERRES
    41   19   89 1    
    42   20   21 2    
    43   20   22 1    
    44   22   23 1    
    45   22   24 1    
    46   22   90 1    
    47   23   91 1    
    48   23   92 1    
    49   23   93 1    
    50   24   25 am   BACKBONE|DICT|INTERRES
    51   24   94 1    
    52   25   26 2    
    53   25   27 1    
    54   27   28 1    
    55   27   29 1    
    56   27   95 1    
    57   28   96 1    
    58   28   97 1    
    59   28   98 1    
    60   29   30 am   BACKBONE|DICT|INTERRES
    61   29   99 1    
    62   30   31 2    
    63   30   32 1    
    64   32   33 1    
    65   32   34 1    
    66   32  100 1    
    67   33  101 1    
    68   33  102 1    
    69   33  103 1    
    70   34   35 am   BACKBONE|DICT|INTERRES
    71   34  104 1    
    72   35   36 2    
    73   37   38 2    
    74   37   39 am   BACKBONE|DICT|INTERRES
    75   39   40 1    
    76   39  105 1    
    77   40   41 1    
    78   40   42 1    
    79   40  106 1    
    80   41  107 1    
    81   41  108 1    
    82   41  109 1    
    83   42   43 2    
    84   42   44 am   BACKBONE|DICT|INTERRES
    85   44   45 1    
    86   44  110 1    
    87   45   46 1    
    88   45   47 1    
    89   45  111 1    
    90   46  112 1    
    91   46  113 1    
    92   46  114 1    
    93   47   48 2    
    94   47   49 am   BACKBONE|DICT|INTERRES
    95   49   50 1    
    96   49  115 1    
    97   50   51 1    
    98   50   52 1    
    99   50  116 1    
   100   51  117 1    
   101   51  118 1    
   102   51  119 1    
   103   52   53 2    
   104   52   54 am   BACKBONE|DICT|INTERRES
   105   54   55 1    
   106   54  120 1    
   107   55   56 1    
   108   55   57 1    
   109   55  121 1    
   110   56  122 1    
   111   56  123 1    
   112   56  124 1    
   113   57   58 2    
   114   57   59 am   BACKBONE|DICT|INTERRES
   115   59   60 1    
   116   59  125 1    
   117   60   61 1    
   118   60   62 1    
   119   60  126 1    
   120   61  127 1    
   121   61  128 1    
   122   61  129 1    
   123   62   63 2    
   124   62   64 am   BACKBONE|DICT|INTERRES
   125   64   65 1    
   126   64  130 1    
   127   65   66 1    
   128   65   69 1    
   129   65  131 1    
   130   66   67 am   BACKBONE|DICT|INTERRES
   131   66   68 2    
   132   67  132 1    
   133   67  133 1    
   134   69   70 1    
   135   69  134 1    
   136   69  135 1    
   137   70   71 1    
   138   71  136 1    
   139   71  137 1    
@<TRIPOS>SUBSTRUCTURE
     1 UNK         1 GROUP             0       ****    0 ROOT    
