@<TRIPOS>MOLECULE
3R136
137   139    1
SMALL
USER_CHARGES


@<TRIPOS>ATOM
      1 CA         31.0444   21.3097    2.9470 C.3       0 UNK        -0.1979 
      2 C          30.2424   21.1251    1.6672 C.2       0 UNK         0.4864 
      3 O          29.7886   20.0158    1.3807 O.2       0 UNK        -0.5359 
      4 N          30.0804   22.2033    0.8915 N.am      1 UNK        -0.4318 
      5 CA         29.3174   22.2479   -0.3602 C.3       1 UNK         0.0824 
      6 C6         29.5595   23.5553   -1.1608 C.3       12 UNK        -0.0944 
      7 S7         31.2982   24.1007   -1.2557 S.3       12 UNK        -0.2672 
      8 C8         31.2220   25.6623   -0.3160 C.3       12 UNK         0.0333 
      9 C9         31.2019   25.4221    1.1882 C.ar      12 UNK        -0.0807 
     10 C10        32.3989   25.4394    1.9108 C.ar      12 UNK        -0.0894 
     11 C11        32.3993   25.2241    3.2919 C.ar      12 UNK        -0.0804 
     12 C12        31.1917   24.9667    3.9470 C.ar      12 UNK        -0.0824 
     13 C13        29.9875   24.9485    3.2374 C.ar      12 UNK        -0.0762 
     14 C14        29.9960   25.1968    1.8620 C.ar      12 UNK        -0.0782 
     15 C15        28.6866   24.6343    3.9604 C.3       12 UNK         0.0230 
     16 S16        27.9196   26.1338    4.6514 S.3       12 UNK        -0.2608 
     17 C17        26.8942   26.7266    3.2622 C.3       12 UNK        -0.0989 
     18 CA         27.5540   27.8494    2.4226 C.3       5 UNK         0.0716 
     19 N          26.8936   27.9699    1.1166 N.am      5 UNK        -0.4135 
     20 C          27.3014   28.7426    0.1003 C.2       4 UNK         0.5031 
     21 O          28.2789   29.4884    0.1716 O.2       4 UNK        -0.5229 
     22 CA         26.4475   28.7288   -1.1848 C.3       4 UNK         0.0329 
     23 CB         27.2946   28.9846   -2.4501 C.3       4 UNK        -0.2001 
     24 N          25.5975   27.5362   -1.3432 N.am      4 UNK        -0.4303 
     25 C          26.0027   26.2722   -1.5362 C.2       3 UNK         0.5044 
     26 O          27.1831   25.9228   -1.5877 O.2       3 UNK        -0.5152 
     27 CA         24.8944   25.2247   -1.7063 C.3       3 UNK         0.0319 
     28 CB         24.2029   25.3615   -3.0759 C.3       3 UNK        -0.2001 
     29 N          25.4719   23.8883   -1.5808 N.am      3 UNK        -0.4354 
     30 C          24.8265   22.7934   -1.1597 C.2       2 UNK         0.4964 
     31 O          23.6390   22.7905   -0.8321 O.2       2 UNK        -0.5047 
     32 CA         25.6147   21.4681   -1.1047 C.3       2 UNK         0.0288 
     33 CB         25.1973   20.5501   -2.2664 C.3       2 UNK        -0.2113 
     34 N          27.0730   21.6282   -1.1287 N.am      2 UNK        -0.4145 
     35 C          27.8027   22.0883   -0.1034 C.2       1 UNK         0.5006 
     36 O          27.3170   22.4377    0.9765 O.2       1 UNK        -0.5103 
     37 C          27.6347   29.1906    3.1883 C.2       5 UNK         0.5055 
     38 O          28.6200   29.4331    3.8833 O.2       5 UNK        -0.5220 
     39 N          26.6255   30.0579    3.0154 N.am      6 UNK        -0.4450 
     40 CA         26.5941   31.4094    3.5820 C.3       6 UNK         0.0367 
     41 CB         25.1765   31.9875    3.4454 C.3       6 UNK        -0.1929 
     42 C          27.6259   32.3609    2.9475 C.2       6 UNK         0.5070 
     43 O          28.1393   33.2382    3.6411 O.2       6 UNK        -0.5237 
     44 N          27.9154   32.1758    1.6519 N.am      7 UNK        -0.4739 
     45 CA         28.9153   32.9511    0.9127 C.3       7 UNK         0.0276 
     46 CB         28.5616   32.9523   -0.5836 C.3       7 UNK        -0.1927 
     47 C          30.3328   32.4028    1.1355 C.2       7 UNK         0.5013 
     48 O          31.2749   33.1849    1.2589 O.2       7 UNK        -0.5193 
     49 N          30.4516   31.0706    1.2029 N.am      8 UNK        -0.4253 
     50 CA         31.6978   30.3352    1.4311 C.3       8 UNK         0.0242 
     51 CB         31.5307   28.9180    0.8603 C.3       8 UNK        -0.2000 
     52 C          32.1412   30.2790    2.9079 C.2       8 UNK         0.4948 
     53 O          33.1533   29.6377    3.1915 O.2       8 UNK        -0.5275 
     54 N          31.3829   30.9178    3.8118 N.am      9 UNK        -0.4246 
     55 CA         31.5825   30.9558    5.2641 C.3       9 UNK         0.0261 
     56 CB         30.4858   31.8368    5.8863 C.3       9 UNK        -0.1959 
     57 C          32.9769   31.4447    5.7021 C.2       9 UNK         0.5033 
     58 O          33.6228   32.2062    4.9774 O.2       9 UNK        -0.5390 
     59 N          33.3865   31.0068    6.9032 N.am      10 UNK        -0.4215 
     60 CA         34.7286   31.1367    7.4896 C.3       10 UNK         0.0240 
     61 CB         35.1340   32.6135    7.6941 C.3       10 UNK        -0.1982 
     62 C          35.7585   30.3148    6.6904 C.2       10 UNK         0.4970 
     63 O          36.7704   30.8498    6.2329 O.2       10 UNK        -0.4916 
     64 N          35.4410   29.0243    6.5235 N.am      11 UNK        -0.4279 
     65 CA         36.2115   28.0109    5.7884 C.3       11 UNK         0.1003 
     66 C          37.6640   27.8404    6.3132 C.2       11 UNK         0.5709 
     67 N          38.6251   27.6260    5.4249 N.am      11 UNK        -0.7358 
     68 O          37.9167   27.8543    7.5170 O.2       11 UNK        -0.4999 
     69 C69        35.4733   26.6446    5.7998 C.3       12 UNK        -0.0954 
     70 S70        33.7819   26.7543    5.1224 S.3       12 UNK        -0.2268 
     71 C71        33.7017   25.2679    4.0777 C.3       12 UNK         0.0203 
     72 H72        31.6311   22.2278    2.9253 H         1 UNK         0.0888 
     73 H73        30.3759   21.3501    3.8065 H         1 UNK         0.0888 
     74 H74        31.7326   20.4765    3.0864 H         1 UNK         0.0888 
     75 H75        30.4812   23.0860    1.1786 H         1 UNK         0.3017 
     76 H76        29.6516   21.4048   -0.9689 H         1 UNK         0.0873 
     77 H77        29.2005   23.4354   -2.1845 H         1 UNK         0.0745 
     78 H78        28.9695   24.3703   -0.7461 H         1 UNK         0.0745 
     79 H79        32.0917   26.2645   -0.5828 H         1 UNK         0.0705 
     80 H80        30.3516   26.2462   -0.6214 H         1 UNK         0.0705 
     81 H81        33.3316   25.6289    1.3972 H         1 UNK         0.1334 
     82 H82        31.1901   24.7903    5.0141 H         1 UNK         0.1417 
     83 H83        29.0609   25.1978    1.3194 H         1 UNK         0.1562 
     84 H84        28.8860   23.9415    4.7794 H         1 UNK         0.0748 
     85 H85        27.9926   24.1143    3.2981 H         1 UNK         0.0748 
     86 H86        25.9342   27.0592    3.6620 H         1 UNK         0.0940 
     87 H87        26.6595   25.8719    2.6257 H         1 UNK         0.0940 
     88 H88        28.5838   27.5567    2.2135 H         1 UNK         0.0703 
     89 H89        26.0683   27.4073    0.9756 H         1 UNK         0.3081 
     90 H90        25.7601   29.5699   -1.0843 H         1 UNK         0.0719 
     91 H91        26.6780   28.9828   -3.3488 H         1 UNK         0.0809 
     92 H92        28.0743   28.2326   -2.5754 H         1 UNK         0.0809 
     93 H93        27.7897   29.9551   -2.4018 H         1 UNK         0.0809 
     94 H94        24.6018   27.7123   -1.3197 H         1 UNK         0.2990 
     95 H95        24.1633   25.3785   -0.9096 H         1 UNK         0.0690 
     96 H96        23.4048   24.6279   -3.1925 H         1 UNK         0.0788 
     97 H97        24.9077   25.2205   -3.8965 H         1 UNK         0.0788 
     98 H98        23.7521   26.3470   -3.1978 H         1 UNK         0.0788 
     99 H99        26.4629   23.8439   -1.7789 H         1 UNK         0.2993 
    100 H100       25.3438   20.9757   -0.1679 H         1 UNK         0.0949 
    101 H101       24.1204   20.3751   -2.2593 H         1 UNK         0.0767 
    102 H102       25.4501   20.9838   -3.2348 H         1 UNK         0.0767 
    103 H103       25.6810   19.5755   -2.1964 H         1 UNK         0.0767 
    104 H104       27.5390   21.3746   -1.9886 H         1 UNK         0.3013 
    105 H105       25.8455   29.7851    2.4357 H         1 UNK         0.3121 
    106 H106       26.8295   31.3344    4.6462 H         1 UNK         0.0774 
    107 H107       25.1196   32.9850    3.8837 H         1 UNK         0.0815 
    108 H108       24.8722   32.0736    2.4015 H         1 UNK         0.0815 
    109 H109       24.4428   31.3677    3.9610 H         1 UNK         0.0815 
    110 H110       27.4953   31.3965    1.1641 H         1 UNK         0.2987 
    111 H111       28.8977   33.9854    1.2645 H         1 UNK         0.0949 
    112 H112       28.5717   31.9468   -1.0052 H         1 UNK         0.0806 
    113 H113       27.5738   33.3792   -0.7573 H         1 UNK         0.0806 
    114 H114       29.2766   33.5496   -1.1511 H         1 UNK         0.0806 
    115 H115       29.6239   30.5057    1.0264 H         1 UNK         0.3010 
    116 H116       32.4973   30.8318    0.8773 H         1 UNK         0.0829 
    117 H117       31.2446   28.9412   -0.1914 H         1 UNK         0.0813 
    118 H118       32.4615   28.3542    0.9320 H         1 UNK         0.0813 
    119 H119       30.7682   28.3590    1.4035 H         1 UNK         0.0813 
    120 H120       30.5618   31.3920    3.4672 H         1 UNK         0.3038 
    121 H121       31.4539   29.9320    5.6213 H         1 UNK         0.0769 
    122 H122       30.5765   31.8780    6.9724 H         1 UNK         0.0811 
    123 H123       29.4916   31.4493    5.6619 H         1 UNK         0.0811 
    124 H124       30.5361   32.8614    5.5149 H         1 UNK         0.0811 
    125 H125       32.7467   30.4247    7.4268 H         1 UNK         0.3204 
    126 H126       34.6762   30.6805    8.4796 H         1 UNK         0.0748 
    127 H127       36.0694   32.6832    8.2507 H         1 UNK         0.0771 
    128 H128       35.2847   33.1352    6.7488 H         1 UNK         0.0771 
    129 H129       34.3781   33.1574    8.2605 H         1 UNK         0.0771 
    130 H130       34.5823   28.6863    6.9291 H         1 UNK         0.2980 
    131 H131       36.2678   28.3579    4.7547 H         1 UNK         0.0545 
    132 H132       38.4262   27.5993    4.4368 H         1 UNK         0.3459 
    133 H133       39.5710   27.4966    5.7486 H         1 UNK         0.3459 
    134 H134       36.0384   25.9087    5.2248 H         1 UNK         0.0616 
    135 H135       35.4058   26.2511    6.8159 H         1 UNK         0.0616 
    136 H136       33.7837   24.3788    4.7045 H         1 UNK         0.0634 
    137 H137       34.5574   25.2559    3.4008 H         1 UNK         0.0634 
@<TRIPOS>BOND
     1    1    2 1    
     2    1   72 1    
     3    1   73 1    
     4    1   74 1    
     5    2    3 2    
     6    2    4 am   BACKBONE|DICT|INTERRES
     7    4    5 1    
     8    4   75 1    
     9    5    6 1    
    10    5   35 1    
    11    5   76 1    
    12    6    7 1    
    13    6   77 1    
    14    6   78 1    
    15    7    8 1    
    16    8    9 1    
    17    8   79 1    
    18    8   80 1    
    19    9   10 ar   
    20    9   14 ar   
    21   10   11 ar   
    22   10   81 1    
    23   11   12 ar   
    24   11   71 1    
    25   12   13 ar   
    26   12   82 1    
    27   13   14 ar   
    28   13   15 1    
    29   14   83 1    
    30   15   16 1    
    31   15   84 1    
    32   15   85 1    
    33   16   17 1    
    34   17   18 1    
    35   17   86 1    
    36   17   87 1    
    37   18   19 1    
    38   18   37 1    
    39   18   88 1    
    40   19   20 am   BACKBONE|DICT|INTERRES
    41   19   89 1    
    42   20   21 2    
    43   20   22 1    
    44   22   23 1    
    45   22   24 1    
    46   22   90 1    
    47   23   91 1    
    48   23   92 1    
    49   23   93 1    
    50   24   25 am   BACKBONE|DICT|INTERRES
    51   24   94 1    
    52   25   26 2    
    53   25   27 1    
    54   27   28 1    
    55   27   29 1    
    56   27   95 1    
    57   28   96 1    
    58   28   97 1    
    59   28   98 1    
    60   29   30 am   BACKBONE|DICT|INTERRES
    61   29   99 1    
    62   30   31 2    
    63   30   32 1    
    64   32   33 1    
    65   32   34 1    
    66   32  100 1    
    67   33  101 1    
    68   33  102 1    
    69   33  103 1    
    70   34   35 am   BACKBONE|DICT|INTERRES
    71   34  104 1    
    72   35   36 2    
    73   37   38 2    
    74   37   39 am   BACKBONE|DICT|INTERRES
    75   39   40 1    
    76   39  105 1    
    77   40   41 1    
    78   40   42 1    
    79   40  106 1    
    80   41  107 1    
    81   41  108 1    
    82   41  109 1    
    83   42   43 2    
    84   42   44 am   BACKBONE|DICT|INTERRES
    85   44   45 1    
    86   44  110 1    
    87   45   46 1    
    88   45   47 1    
    89   45  111 1    
    90   46  112 1    
    91   46  113 1    
    92   46  114 1    
    93   47   48 2    
    94   47   49 am   BACKBONE|DICT|INTERRES
    95   49   50 1    
    96   49  115 1    
    97   50   51 1    
    98   50   52 1    
    99   50  116 1    
   100   51  117 1    
   101   51  118 1    
   102   51  119 1    
   103   52   53 2    
   104   52   54 am   BACKBONE|DICT|INTERRES
   105   54   55 1    
   106   54  120 1    
   107   55   56 1    
   108   55   57 1    
   109   55  121 1    
   110   56  122 1    
   111   56  123 1    
   112   56  124 1    
   113   57   58 2    
   114   57   59 am   BACKBONE|DICT|INTERRES
   115   59   60 1    
   116   59  125 1    
   117   60   61 1    
   118   60   62 1    
   119   60  126 1    
   120   61  127 1    
   121   61  128 1    
   122   61  129 1    
   123   62   63 2    
   124   62   64 am   BACKBONE|DICT|INTERRES
   125   64   65 1    
   126   64  130 1    
   127   65   66 1    
   128   65   69 1    
   129   65  131 1    
   130   66   67 am   BACKBONE|DICT|INTERRES
   131   66   68 2    
   132   67  132 1    
   133   67  133 1    
   134   69   70 1    
   135   69  134 1    
   136   69  135 1    
   137   70   71 1    
   138   71  136 1    
   139   71  137 1    
@<TRIPOS>SUBSTRUCTURE
     1 UNK         1 GROUP             0       ****    0 ROOT    
