@<TRIPOS>MOLECULE
3R136
137   139    1
SMALL
USER_CHARGES


@<TRIPOS>ATOM
      1 CA         30.1518   18.2687    0.3675 C.3       0 UNK        -0.1979 
      2 C          30.5209   19.4407   -0.5300 C.2       0 UNK         0.4864 
      3 O          31.5833   19.4226   -1.1534 O.2       0 UNK        -0.5359 
      4 N          29.6528   20.4546   -0.5985 N.am      1 UNK        -0.4318 
      5 CA         29.8028   21.6545   -1.4210 C.3       1 UNK         0.0824 
      6 C6         30.8843   22.6412   -0.8859 C.3       12 UNK        -0.0944 
      7 S7         30.4401   23.5376    0.6416 S.3       12 UNK        -0.2672 
      8 C8         31.0978   22.4343    1.9267 C.3       12 UNK         0.0333 
      9 C9         30.8364   23.0198    3.3037 C.ar      12 UNK        -0.0807 
     10 C10        31.8655   23.6469    4.0127 C.ar      12 UNK        -0.0894 
     11 C11        31.6144   24.2246    5.2606 C.ar      12 UNK        -0.0804 
     12 C12        30.3265   24.1643    5.8000 C.ar      12 UNK        -0.0824 
     13 C13        29.2883   23.5444    5.0973 C.ar      12 UNK        -0.0762 
     14 C14        29.5527   22.9607    3.8555 C.ar      12 UNK        -0.0782 
     15 C15        27.8768   23.5327    5.6708 C.3       12 UNK         0.0230 
     16 S16        26.7184   24.5681    4.7114 S.3       12 UNK        -0.2608 
     17 C17        27.6010   26.1639    4.6175 C.3       12 UNK        -0.0989 
     18 CA         28.0366   26.4756    3.1585 C.3       5 UNK         0.0716 
     19 N          26.9203   26.8114    2.2615 N.am      5 UNK        -0.4135 
     20 C          26.0571   27.8364    2.3692 C.2       4 UNK         0.5031 
     21 O          26.0765   28.6563    3.2895 O.2       4 UNK        -0.5229 
     22 CA         24.9952   28.0045    1.2653 C.3       4 UNK         0.0329 
     23 CB         25.4440   29.0763    0.2585 C.3       4 UNK        -0.2001 
     24 N          24.6948   26.7683    0.5433 N.am      4 UNK        -0.4303 
     25 C          24.0809   25.6989    1.0684 C.2       3 UNK         0.5044 
     26 O          23.5882   25.6803    2.1967 O.2       3 UNK        -0.5152 
     27 CA         24.0132   24.4279    0.1982 C.3       3 UNK         0.0319 
     28 CB         22.5889   24.2257   -0.3452 C.3       3 UNK        -0.2001 
     29 N          24.9621   24.3851   -0.9241 N.am      3 UNK        -0.4354 
     30 C          26.2984   24.4191   -0.8209 C.2       2 UNK         0.4964 
     31 O          26.9025   24.5926    0.2404 O.2       2 UNK        -0.5047 
     32 CA         27.0844   24.3080   -2.1392 C.3       2 UNK         0.0288 
     33 CB         27.4111   25.7092   -2.6821 C.3       2 UNK        -0.2113 
     34 N          28.3305   23.5572   -1.9725 N.am      2 UNK        -0.4145 
     35 C          28.4006   22.2555   -1.6602 C.2       1 UNK         0.5006 
     36 O          27.4069   21.5270   -1.5673 O.2       1 UNK        -0.5103 
     37 C          29.1703   27.5198    3.1017 C.2       5 UNK         0.5055 
     38 O          30.2844   27.1839    2.7008 O.2       5 UNK        -0.5220 
     39 N          28.8700   28.7660    3.4850 N.am      6 UNK        -0.4450 
     40 CA         29.7710   29.9099    3.3784 C.3       6 UNK         0.0367 
     41 CB         29.2240   31.0679    4.2263 C.3       6 UNK        -0.1929 
     42 C          29.9274   30.3437    1.9126 C.2       6 UNK         0.5070 
     43 O          28.9306   30.4237    1.1913 O.2       6 UNK        -0.5237 
     44 N          31.1655   30.6505    1.5170 N.am      7 UNK        -0.4739 
     45 CA         31.5070   31.2244    0.2156 C.3       7 UNK         0.0276 
     46 CB         32.8201   30.6017   -0.2858 C.3       7 UNK        -0.1927 
     47 C          31.6417   32.7501    0.3205 C.2       7 UNK         0.5013 
     48 O          31.1861   33.4625   -0.5745 O.2       7 UNK        -0.5193 
     49 N          32.2471   33.2208    1.4179 N.am      8 UNK        -0.4253 
     50 CA         32.4552   34.6302    1.7399 C.3       8 UNK         0.0242 
     51 CB         33.6377   35.1987    0.9281 C.3       8 UNK        -0.2000 
     52 C          32.6726   34.7159    3.2529 C.2       8 UNK         0.4948 
     53 O          33.8032   34.9136    3.7025 O.2       8 UNK        -0.5275 
     54 N          31.5992   34.4508    4.0133 N.am      9 UNK        -0.4246 
     55 CA         31.5359   34.2419    5.4712 C.3       9 UNK         0.0261 
     56 CB         32.0251   35.4724    6.2610 C.3       9 UNK        -0.1959 
     57 C          32.2462   32.9524    5.9260 C.2       9 UNK         0.5033 
     58 O          31.6356   32.1351    6.6153 O.2       9 UNK        -0.5390 
     59 N          33.4967   32.7717    5.4897 N.am      10 UNK        -0.4215 
     60 CA         34.2290   31.5087    5.5188 C.3       10 UNK         0.0240 
     61 CB         35.7311   31.8083    5.3861 C.3       10 UNK        -0.1982 
     62 C          33.7603   30.5943    4.3744 C.2       10 UNK         0.4970 
     63 O          33.1997   31.0785    3.3856 O.2       10 UNK        -0.4916 
     64 N          34.0264   29.2923    4.5181 N.am      11 UNK        -0.4279 
     65 CA         33.6653   28.2393    3.5517 C.3       11 UNK         0.1003 
     66 C          34.4768   28.2536    2.2212 C.2       11 UNK         0.5709 
     67 N          35.5164   29.0676    2.0801 N.am      11 UNK        -0.7358 
     68 O          34.1545   27.5141    1.2954 O.2       11 UNK        -0.4999 
     69 C69        33.6937   26.8296    4.2008 C.3       12 UNK        -0.0954 
     70 S70        32.7180   26.7182    5.7390 S.3       12 UNK        -0.2268 
     71 C71        32.7258   24.9218    6.0307 C.3       12 UNK         0.0203 
     72 H72        30.9102   18.1335    1.1381 H         1 UNK         0.0888 
     73 H73        29.1914   18.4194    0.8604 H         1 UNK         0.0888 
     74 H74        30.0924   17.3516   -0.2179 H         1 UNK         0.0888 
     75 H75        28.7579   20.3944   -0.1295 H         1 UNK         0.3017 
     76 H76        30.1323   21.3207   -2.4073 H         1 UNK         0.0873 
     77 H77        31.8271   22.1165   -0.7256 H         1 UNK         0.0745 
     78 H78        31.1111   23.3867   -1.6494 H         1 UNK         0.0745 
     79 H79        30.6258   21.4545    1.8513 H         1 UNK         0.0705 
     80 H80        32.1663   22.2821    1.7662 H         1 UNK         0.0705 
     81 H81        32.8577   23.6997    3.5862 H         1 UNK         0.1334 
     82 H82        30.1301   24.6218    6.7602 H         1 UNK         0.1417 
     83 H83        28.7499   22.4941    3.3005 H         1 UNK         0.1562 
     84 H84        27.8775   23.8751    6.7069 H         1 UNK         0.0748 
     85 H85        27.5036   22.5078    5.6890 H         1 UNK         0.0748 
     86 H86        28.4616   26.1423    5.2868 H         1 UNK         0.0940 
     87 H87        26.9522   26.9436    5.0173 H         1 UNK         0.0940 
     88 H88        28.4676   25.5620    2.7432 H         1 UNK         0.0703 
     89 H89        26.8193   26.1790    1.4732 H         1 UNK         0.3081 
     90 H90        24.0759   28.3470    1.7452 H         1 UNK         0.0719 
     91 H91        26.3551   28.7831   -0.2651 H         1 UNK         0.0809 
     92 H92        24.6730   29.2717   -0.4869 H         1 UNK         0.0809 
     93 H93        25.6528   30.0214    0.7626 H         1 UNK         0.0809 
     94 H94        25.0507   26.6919   -0.3978 H         1 UNK         0.2990 
     95 H95        24.2507   23.5868    0.8529 H         1 UNK         0.0690 
     96 H96        22.4946   23.2756   -0.8715 H         1 UNK         0.0788 
     97 H97        22.3027   25.0226   -1.0327 H         1 UNK         0.0788 
     98 H98        21.8581   24.2168    0.4650 H         1 UNK         0.0788 
     99 H99        24.5547   24.2705   -1.8415 H         1 UNK         0.2993 
    100 H100       26.4715   23.7797   -2.8730 H         1 UNK         0.0949 
    101 H101       28.0304   26.2772   -1.9860 H         1 UNK         0.0767 
    102 H102       27.9410   25.6528   -3.6333 H         1 UNK         0.0767 
    103 H103       26.5014   26.2859   -2.8548 H         1 UNK         0.0767 
    104 H104       29.1833   24.0968   -1.9665 H         1 UNK         0.3013 
    105 H105       27.8909   28.9634    3.6781 H         1 UNK         0.3121 
    106 H106       30.7433   29.6226    3.7812 H         1 UNK         0.0774 
    107 H107       28.2290   31.3737    3.8998 H         1 UNK         0.0815 
    108 H108       29.8740   31.9397    4.1553 H         1 UNK         0.0815 
    109 H109       29.1653   30.7947    5.2801 H         1 UNK         0.0815 
    110 H110       31.9195   30.6094    2.1995 H         1 UNK         0.2987 
    111 H111       30.7237   31.0022   -0.5128 H         1 UNK         0.0949 
    112 H112       33.6498   30.7991    0.3943 H         1 UNK         0.0806 
    113 H113       32.7284   29.5207   -0.3939 H         1 UNK         0.0806 
    114 H114       33.0947   31.0035   -1.2620 H         1 UNK         0.0806 
    115 H115       32.5921   32.5578    2.1060 H         1 UNK         0.3010 
    116 H116       31.5551   35.1990    1.4964 H         1 UNK         0.0829 
    117 H117       33.8377   36.2347    1.2042 H         1 UNK         0.0813 
    118 H118       34.5535   34.6312    1.0983 H         1 UNK         0.0813 
    119 H119       33.4305   35.1842   -0.1419 H         1 UNK         0.0813 
    120 H120       30.7298   34.2777    3.5274 H         1 UNK         0.3038 
    121 H121       30.4772   34.1120    5.7025 H         1 UNK         0.0769 
    122 H122       33.0894   35.6608    6.1183 H         1 UNK         0.0811 
    123 H123       31.8648   35.3328    7.3308 H         1 UNK         0.0811 
    124 H124       31.4839   36.3717    5.9672 H         1 UNK         0.0811 
    125 H125       33.8693   33.5010    4.8842 H         1 UNK         0.3204 
    126 H126       34.0439   31.0091    6.4722 H         1 UNK         0.0748 
    127 H127       36.3236   30.8940    5.4377 H         1 UNK         0.0771 
    128 H128       35.9629   32.2968    4.4383 H         1 UNK         0.0771 
    129 H129       36.0758   32.4600    6.1894 H         1 UNK         0.0771 
    130 H130       34.4965   28.9742    5.3526 H         1 UNK         0.2980 
    131 H131       32.6346   28.4278    3.2524 H         1 UNK         0.0545 
    132 H132       36.0300   29.0629    1.2134 H         1 UNK         0.3459 
    133 H133       35.7932   29.6809    2.8284 H         1 UNK         0.3459 
    134 H134       34.7197   26.5321    4.4247 H         1 UNK         0.0616 
    135 H135       33.3016   26.0926    3.4984 H         1 UNK         0.0616 
    136 H136       33.6999   24.5063    5.7679 H         1 UNK         0.0634 
    137 H137       32.5975   24.7415    7.0991 H         1 UNK         0.0634 
@<TRIPOS>BOND
     1    1    2 1    
     2    1   72 1    
     3    1   73 1    
     4    1   74 1    
     5    2    3 2    
     6    2    4 am   BACKBONE|DICT|INTERRES
     7    4    5 1    
     8    4   75 1    
     9    5    6 1    
    10    5   35 1    
    11    5   76 1    
    12    6    7 1    
    13    6   77 1    
    14    6   78 1    
    15    7    8 1    
    16    8    9 1    
    17    8   79 1    
    18    8   80 1    
    19    9   10 ar   
    20    9   14 ar   
    21   10   11 ar   
    22   10   81 1    
    23   11   12 ar   
    24   11   71 1    
    25   12   13 ar   
    26   12   82 1    
    27   13   14 ar   
    28   13   15 1    
    29   14   83 1    
    30   15   16 1    
    31   15   84 1    
    32   15   85 1    
    33   16   17 1    
    34   17   18 1    
    35   17   86 1    
    36   17   87 1    
    37   18   19 1    
    38   18   37 1    
    39   18   88 1    
    40   19   20 am   BACKBONE|DICT|INTERRES
    41   19   89 1    
    42   20   21 2    
    43   20   22 1    
    44   22   23 1    
    45   22   24 1    
    46   22   90 1    
    47   23   91 1    
    48   23   92 1    
    49   23   93 1    
    50   24   25 am   BACKBONE|DICT|INTERRES
    51   24   94 1    
    52   25   26 2    
    53   25   27 1    
    54   27   28 1    
    55   27   29 1    
    56   27   95 1    
    57   28   96 1    
    58   28   97 1    
    59   28   98 1    
    60   29   30 am   BACKBONE|DICT|INTERRES
    61   29   99 1    
    62   30   31 2    
    63   30   32 1    
    64   32   33 1    
    65   32   34 1    
    66   32  100 1    
    67   33  101 1    
    68   33  102 1    
    69   33  103 1    
    70   34   35 am   BACKBONE|DICT|INTERRES
    71   34  104 1    
    72   35   36 2    
    73   37   38 2    
    74   37   39 am   BACKBONE|DICT|INTERRES
    75   39   40 1    
    76   39  105 1    
    77   40   41 1    
    78   40   42 1    
    79   40  106 1    
    80   41  107 1    
    81   41  108 1    
    82   41  109 1    
    83   42   43 2    
    84   42   44 am   BACKBONE|DICT|INTERRES
    85   44   45 1    
    86   44  110 1    
    87   45   46 1    
    88   45   47 1    
    89   45  111 1    
    90   46  112 1    
    91   46  113 1    
    92   46  114 1    
    93   47   48 2    
    94   47   49 am   BACKBONE|DICT|INTERRES
    95   49   50 1    
    96   49  115 1    
    97   50   51 1    
    98   50   52 1    
    99   50  116 1    
   100   51  117 1    
   101   51  118 1    
   102   51  119 1    
   103   52   53 2    
   104   52   54 am   BACKBONE|DICT|INTERRES
   105   54   55 1    
   106   54  120 1    
   107   55   56 1    
   108   55   57 1    
   109   55  121 1    
   110   56  122 1    
   111   56  123 1    
   112   56  124 1    
   113   57   58 2    
   114   57   59 am   BACKBONE|DICT|INTERRES
   115   59   60 1    
   116   59  125 1    
   117   60   61 1    
   118   60   62 1    
   119   60  126 1    
   120   61  127 1    
   121   61  128 1    
   122   61  129 1    
   123   62   63 2    
   124   62   64 am   BACKBONE|DICT|INTERRES
   125   64   65 1    
   126   64  130 1    
   127   65   66 1    
   128   65   69 1    
   129   65  131 1    
   130   66   67 am   BACKBONE|DICT|INTERRES
   131   66   68 2    
   132   67  132 1    
   133   67  133 1    
   134   69   70 1    
   135   69  134 1    
   136   69  135 1    
   137   70   71 1    
   138   71  136 1    
   139   71  137 1    
@<TRIPOS>SUBSTRUCTURE
     1 UNK         1 GROUP             0       ****    0 ROOT    
