@<TRIPOS>MOLECULE
3R136
137   139    1
SMALL
USER_CHARGES


@<TRIPOS>ATOM
      1 CA         31.9136   20.5685    4.1432 C.3       0 UNK        -0.1979 
      2 C          30.8738   20.2182    3.0903 C.2       0 UNK         0.4864 
      3 O          29.9971   19.3941    3.3540 O.2       0 UNK        -0.5359 
      4 N          30.9772   20.8167    1.8956 N.am      1 UNK        -0.4318 
      5 CA         30.1145   20.5338    0.7401 C.3       1 UNK         0.0824 
      6 C6         30.7050   21.0431   -0.6030 C.3       12 UNK        -0.0944 
      7 S7         32.4901   20.6776   -0.7810 S.3       12 UNK        -0.2672 
      8 C8         33.2374   22.3174   -1.0852 C.3       12 UNK         0.0333 
      9 C9         32.7699   23.3963   -0.1133 C.ar      12 UNK        -0.0807 
     10 C10        33.1133   23.3396    1.2431 C.ar      12 UNK        -0.0894 
     11 C11        32.6643   24.3275    2.1273 C.ar      12 UNK        -0.0804 
     12 C12        31.8834   25.3790    1.6423 C.ar      12 UNK        -0.0824 
     13 C13        31.5530   25.4599    0.2886 C.ar      12 UNK        -0.0762 
     14 C14        31.9979   24.4648   -0.5849 C.ar      12 UNK        -0.0782 
     15 C15        30.7172   26.6255   -0.2170 C.3       12 UNK         0.0230 
     16 S16        31.6843   28.1684   -0.1809 S.3       12 UNK        -0.2608 
     17 C17        30.5677   29.4112   -0.9184 C.3       12 UNK        -0.0989 
     18 CA         29.0905   29.3919   -0.4346 C.3       5 UNK         0.0716 
     19 N          28.9963   29.3964    1.0286 N.am      5 UNK        -0.4135 
     20 C          28.1298   28.6849    1.7552 C.2       4 UNK         0.5031 
     21 O          27.2835   27.9364    1.2641 O.2       4 UNK        -0.5229 
     22 CA         28.2150   28.9000    3.2759 C.3       4 UNK         0.0329 
     23 CB         27.1871   29.9394    3.7656 C.3       4 UNK        -0.2001 
     24 N          28.1452   27.6421    4.0231 N.am      4 UNK        -0.4303 
     25 C          27.0965   26.8317    4.2168 C.2       3 UNK         0.5044 
     26 O          25.9296   27.0904    3.9123 O.2       3 UNK        -0.5152 
     27 CA         27.4106   25.4748    4.8673 C.3       3 UNK         0.0319 
     28 CB         26.6064   25.2710    6.1624 C.3       3 UNK        -0.2001 
     29 N          27.1235   24.3841    3.9341 N.am      3 UNK        -0.4354 
     30 C          27.8579   24.1316    2.8438 C.2       2 UNK         0.4964 
     31 O          28.8702   24.7614    2.5356 O.2       2 UNK        -0.5047 
     32 CA         27.3998   22.9870    1.9367 C.3       2 UNK         0.0288 
     33 CB         26.6110   23.5248    0.7276 C.3       2 UNK        -0.2113 
     34 N          28.6080   22.2974    1.5031 N.am      2 UNK        -0.4145 
     35 C          28.6891   21.0794    0.9567 C.2       1 UNK         0.5006 
     36 O          27.7134   20.3887    0.6568 O.2       1 UNK        -0.5103 
     37 C          28.3211   30.5881   -1.0405 C.2       5 UNK         0.5055 
     38 O          28.4916   30.8700   -2.2275 O.2       5 UNK        -0.5220 
     39 N          27.5589   31.3235   -0.2135 N.am      6 UNK        -0.4450 
     40 CA         26.8823   32.6070   -0.4615 C.3       6 UNK         0.0367 
     41 CB         25.9008   32.5352   -1.6478 C.3       6 UNK        -0.1929 
     42 C          27.8599   33.7881   -0.6041 C.2       6 UNK         0.5070 
     43 O          27.6420   34.8301    0.0133 O.2       6 UNK        -0.5237 
     44 N          28.9385   33.5951   -1.3728 N.am      7 UNK        -0.4739 
     45 CA         30.0562   34.5314   -1.5180 C.3       7 UNK         0.0276 
     46 CB         30.8658   34.1482   -2.7674 C.3       7 UNK        -0.1927 
     47 C          30.9734   34.5824   -0.2804 C.2       7 UNK         0.5013 
     48 O          31.6779   35.5763   -0.0984 O.2       7 UNK        -0.5193 
     49 N          30.9561   33.5246    0.5399 N.am      8 UNK        -0.4253 
     50 CA         31.7122   33.3930    1.7807 C.3       8 UNK         0.0242 
     51 CB         33.1246   32.8596    1.4820 C.3       8 UNK        -0.2000 
     52 C          30.9591   32.4314    2.7019 C.2       8 UNK         0.4948 
     53 O          30.3509   31.4760    2.2130 O.2       8 UNK        -0.5275 
     54 N          31.0498   32.6573    4.0168 N.am      9 UNK        -0.4246 
     55 CA         30.4052   31.8500    5.0594 C.3       9 UNK         0.0261 
     56 CB         30.0721   32.7587    6.2577 C.3       9 UNK        -0.1959 
     57 C          31.2448   30.6206    5.4688 C.2       9 UNK         0.5033 
     58 O          31.3057   30.2870    6.6544 O.2       9 UNK        -0.5390 
     59 N          31.8956   29.9756    4.4913 N.am      10 UNK        -0.4215 
     60 CA         32.7485   28.8005    4.6787 C.3       10 UNK         0.0240 
     61 CB         33.4563   28.4749    3.3546 C.3       10 UNK        -0.1982 
     62 C          31.9468   27.5891    5.1824 C.2       10 UNK         0.4970 
     63 O          30.8916   27.2953    4.6196 O.2       10 UNK        -0.4916 
     64 N          32.4677   26.9345    6.2292 N.am      11 UNK        -0.4279 
     65 CA         31.9044   25.7708    6.9428 C.3       11 UNK         0.1003 
     66 C          30.4240   25.8829    7.4284 C.2       11 UNK         0.5709 
     67 N          29.8574   27.0786    7.5447 N.am      11 UNK        -0.7358 
     68 O          29.7939   24.8809    7.7574 O.2       11 UNK        -0.4999 
     69 C69        32.2875   24.4011    6.3039 C.3       12 UNK        -0.0954 
     70 S70        31.5738   24.0617    4.6608 S.3       12 UNK        -0.2268 
     71 C71        33.0363   24.2938    3.6018 C.3       12 UNK         0.0203 
     72 H72        32.4196   19.6662    4.4852 H         1 UNK         0.0888 
     73 H73        32.6691   21.2515    3.7576 H         1 UNK         0.0888 
     74 H74        31.4347   21.0362    5.0030 H         1 UNK         0.0888 
     75 H75        31.7183   21.4817    1.7262 H         1 UNK         0.3017 
     76 H76        30.0324   19.4470    0.6649 H         1 UNK         0.0873 
     77 H77        30.5313   22.1121   -0.7254 H         1 UNK         0.0745 
     78 H78        30.1826   20.5699   -1.4364 H         1 UNK         0.0745 
     79 H79        33.0203   22.6077   -2.1144 H         1 UNK         0.0705 
     80 H80        34.3224   22.2255   -1.0209 H         1 UNK         0.0705 
     81 H81        33.7305   22.5282    1.6047 H         1 UNK         0.1334 
     82 H82        31.5257   26.1387    2.3239 H         1 UNK         0.1417 
     83 H83        31.7403   24.5217   -1.6339 H         1 UNK         0.1562 
     84 H84        29.8325   26.7181    0.4130 H         1 UNK         0.0748 
     85 H85        30.3637   26.4415   -1.2326 H         1 UNK         0.0748 
     86 H86        30.6085   29.2794   -2.0016 H         1 UNK         0.0940 
     87 H87        31.0165   30.3873   -0.7217 H         1 UNK         0.0940 
     88 H88        28.6168   28.4917   -0.8305 H         1 UNK         0.0703 
     89 H89        29.6188   30.0509    1.5046 H         1 UNK         0.3081 
     90 H90        29.2081   29.2911    3.4967 H         1 UNK         0.0719 
     91 H91        27.3790   30.9150    3.3176 H         1 UNK         0.0809 
     92 H92        26.1665   29.6606    3.5021 H         1 UNK         0.0809 
     93 H93        27.2328   30.0641    4.8475 H         1 UNK         0.0809 
     94 H94        29.0625   27.2911    4.2964 H         1 UNK         0.2990 
     95 H95        28.4729   25.4370    5.1210 H         1 UNK         0.0690 
     96 H96        26.8807   24.3377    6.6546 H         1 UNK         0.0788 
     97 H97        25.5318   25.2532    5.9761 H         1 UNK         0.0788 
     98 H98        26.8023   26.0774    6.8699 H         1 UNK         0.0788 
     99 H99        26.2819   23.8524    4.1017 H         1 UNK         0.2993 
    100 H100       26.7803   22.2923    2.5080 H         1 UNK         0.0949 
    101 H101       27.2156   24.2062    0.1272 H         1 UNK         0.0767 
    102 H102       26.2703   22.7179    0.0788 H         1 UNK         0.0767 
    103 H103       25.7268   24.0742    1.0533 H         1 UNK         0.0767 
    104 H104       29.4597   22.8011    1.7234 H         1 UNK         0.3013 
    105 H105       27.5138   31.0062    0.7440 H         1 UNK         0.3121 
    106 H106       26.2901   32.8008    0.4346 H         1 UNK         0.0774 
    107 H107       25.3201   33.4554   -1.7233 H         1 UNK         0.0815 
    108 H108       26.4127   32.4015   -2.6009 H         1 UNK         0.0815 
    109 H109       25.1936   31.7146   -1.5282 H         1 UNK         0.0815 
    110 H110       29.0037   32.7081   -1.8649 H         1 UNK         0.2987 
    111 H111       29.6490   35.5344   -1.6644 H         1 UNK         0.0949 
    112 H112       31.6953   34.8397   -2.9231 H         1 UNK         0.0806 
    113 H113       31.2878   33.1458   -2.6834 H         1 UNK         0.0806 
    114 H114       30.2481   34.1784   -3.6651 H         1 UNK         0.0806 
    115 H115       30.3160   32.7650    0.3534 H         1 UNK         0.3010 
    116 H116       31.7803   34.3680    2.2685 H         1 UNK         0.0829 
    117 H117       33.6782   33.5419    0.8367 H         1 UNK         0.0813 
    118 H118       33.7031   32.7420    2.3992 H         1 UNK         0.0813 
    119 H119       33.0912   31.8869    0.9887 H         1 UNK         0.0813 
    120 H120       31.6127   33.4324    4.3389 H         1 UNK         0.3038 
    121 H121       29.4596   31.4682    4.6728 H         1 UNK         0.0769 
    122 H122       29.4541   33.6043    5.9553 H         1 UNK         0.0811 
    123 H123       30.9738   33.1519    6.7289 H         1 UNK         0.0811 
    124 H124       29.5156   32.2137    7.0216 H         1 UNK         0.0811 
    125 H125       31.7459   30.2873    3.5414 H         1 UNK         0.3204 
    126 H126       33.5083   29.0592    5.4193 H         1 UNK         0.0748 
    127 H127       32.7414   28.2305    2.5695 H         1 UNK         0.0771 
    128 H128       34.0598   29.3140    3.0078 H         1 UNK         0.0771 
    129 H129       34.1240   27.6198    3.4653 H         1 UNK         0.0771 
    130 H130       33.3274   27.2884    6.6222 H         1 UNK         0.2980 
    131 H131       32.4455   25.7885    7.8893 H         1 UNK         0.0545 
    132 H132       28.9152   27.1451    7.8924 H         1 UNK         0.3459 
    133 H133       30.3643   27.9133    7.2906 H         1 UNK         0.3459 
    134 H134       31.9913   23.5846    6.9643 H         1 UNK         0.0616 
    135 H135       33.3738   24.3270    6.2382 H         1 UNK         0.0616 
    136 H136       33.5249   25.2329    3.8628 H         1 UNK         0.0634 
    137 H137       33.7574   23.5012    3.8057 H         1 UNK         0.0634 
@<TRIPOS>BOND
     1    1    2 1    
     2    1   72 1    
     3    1   73 1    
     4    1   74 1    
     5    2    3 2    
     6    2    4 am   BACKBONE|DICT|INTERRES
     7    4    5 1    
     8    4   75 1    
     9    5    6 1    
    10    5   35 1    
    11    5   76 1    
    12    6    7 1    
    13    6   77 1    
    14    6   78 1    
    15    7    8 1    
    16    8    9 1    
    17    8   79 1    
    18    8   80 1    
    19    9   10 ar   
    20    9   14 ar   
    21   10   11 ar   
    22   10   81 1    
    23   11   12 ar   
    24   11   71 1    
    25   12   13 ar   
    26   12   82 1    
    27   13   14 ar   
    28   13   15 1    
    29   14   83 1    
    30   15   16 1    
    31   15   84 1    
    32   15   85 1    
    33   16   17 1    
    34   17   18 1    
    35   17   86 1    
    36   17   87 1    
    37   18   19 1    
    38   18   37 1    
    39   18   88 1    
    40   19   20 am   BACKBONE|DICT|INTERRES
    41   19   89 1    
    42   20   21 2    
    43   20   22 1    
    44   22   23 1    
    45   22   24 1    
    46   22   90 1    
    47   23   91 1    
    48   23   92 1    
    49   23   93 1    
    50   24   25 am   BACKBONE|DICT|INTERRES
    51   24   94 1    
    52   25   26 2    
    53   25   27 1    
    54   27   28 1    
    55   27   29 1    
    56   27   95 1    
    57   28   96 1    
    58   28   97 1    
    59   28   98 1    
    60   29   30 am   BACKBONE|DICT|INTERRES
    61   29   99 1    
    62   30   31 2    
    63   30   32 1    
    64   32   33 1    
    65   32   34 1    
    66   32  100 1    
    67   33  101 1    
    68   33  102 1    
    69   33  103 1    
    70   34   35 am   BACKBONE|DICT|INTERRES
    71   34  104 1    
    72   35   36 2    
    73   37   38 2    
    74   37   39 am   BACKBONE|DICT|INTERRES
    75   39   40 1    
    76   39  105 1    
    77   40   41 1    
    78   40   42 1    
    79   40  106 1    
    80   41  107 1    
    81   41  108 1    
    82   41  109 1    
    83   42   43 2    
    84   42   44 am   BACKBONE|DICT|INTERRES
    85   44   45 1    
    86   44  110 1    
    87   45   46 1    
    88   45   47 1    
    89   45  111 1    
    90   46  112 1    
    91   46  113 1    
    92   46  114 1    
    93   47   48 2    
    94   47   49 am   BACKBONE|DICT|INTERRES
    95   49   50 1    
    96   49  115 1    
    97   50   51 1    
    98   50   52 1    
    99   50  116 1    
   100   51  117 1    
   101   51  118 1    
   102   51  119 1    
   103   52   53 2    
   104   52   54 am   BACKBONE|DICT|INTERRES
   105   54   55 1    
   106   54  120 1    
   107   55   56 1    
   108   55   57 1    
   109   55  121 1    
   110   56  122 1    
   111   56  123 1    
   112   56  124 1    
   113   57   58 2    
   114   57   59 am   BACKBONE|DICT|INTERRES
   115   59   60 1    
   116   59  125 1    
   117   60   61 1    
   118   60   62 1    
   119   60  126 1    
   120   61  127 1    
   121   61  128 1    
   122   61  129 1    
   123   62   63 2    
   124   62   64 am   BACKBONE|DICT|INTERRES
   125   64   65 1    
   126   64  130 1    
   127   65   66 1    
   128   65   69 1    
   129   65  131 1    
   130   66   67 am   BACKBONE|DICT|INTERRES
   131   66   68 2    
   132   67  132 1    
   133   67  133 1    
   134   69   70 1    
   135   69  134 1    
   136   69  135 1    
   137   70   71 1    
   138   71  136 1    
   139   71  137 1    
@<TRIPOS>SUBSTRUCTURE
     1 UNK         1 GROUP             0       ****    0 ROOT    
