@<TRIPOS>MOLECULE
3R136
137   139    1
SMALL
USER_CHARGES


@<TRIPOS>ATOM
      1 CA         29.9272   18.0120    0.8198 C.3       0 UNK        -0.1979 
      2 C          29.8255   19.3669    0.1346 C.2       0 UNK         0.4864 
      3 O          30.0866   19.4667   -1.0657 O.2       0 UNK        -0.5359 
      4 N          29.4575   20.4096    0.8891 N.am      1 UNK        -0.4318 
      5 CA         29.2311   21.7683    0.3889 C.3       1 UNK         0.0824 
      6 C6         29.3355   22.8205    1.5248 C.3       12 UNK        -0.0944 
      7 S7         28.1755   22.5554    2.9125 S.3       12 UNK        -0.2672 
      8 C8         29.2114   22.9824    4.3457 C.3       12 UNK         0.0333 
      9 C9         29.5873   24.4576    4.3552 C.ar      12 UNK        -0.0807 
     10 C10        30.8995   24.8543    4.0749 C.ar      12 UNK        -0.0894 
     11 C11        31.2525   26.2061    4.1127 C.ar      12 UNK        -0.0804 
     12 C12        30.2824   27.1615    4.4240 C.ar      12 UNK        -0.0824 
     13 C13        28.9672   26.7794    4.7021 C.ar      12 UNK        -0.0762 
     14 C14        28.6256   25.4243    4.6693 C.ar      12 UNK        -0.0782 
     15 C15        27.9287   27.8351    5.0615 C.3       12 UNK         0.0230 
     16 S16        26.6784   28.0791    3.7571 S.3       12 UNK        -0.2608 
     17 C17        27.7037   28.4403    2.2913 C.3       12 UNK        -0.0989 
     18 CA         27.4915   27.3593    1.1951 C.3       5 UNK         0.0716 
     19 N          26.1703   27.3752    0.5504 N.am      5 UNK        -0.4135 
     20 C          25.5127   28.4086   -0.0031 C.2       4 UNK         0.5031 
     21 O          25.8917   29.5795    0.0508 O.2       4 UNK        -0.5229 
     22 CA         24.2088   28.1061   -0.7752 C.3       4 UNK         0.0329 
     23 CB         24.2719   28.6796   -2.2026 C.3       4 UNK        -0.2001 
     24 N          23.8984   26.6784   -0.8674 N.am      4 UNK        -0.4303 
     25 C          23.2567   25.9580    0.0618 C.2       3 UNK         0.5044 
     26 O          22.7731   26.4360    1.0879 O.2       3 UNK        -0.5152 
     27 CA         23.1677   24.4375   -0.1820 C.3       3 UNK         0.0319 
     28 CB         21.8029   24.0702   -0.7866 C.3       3 UNK        -0.2001 
     29 N          24.2366   23.8972   -1.0360 N.am      3 UNK        -0.4354 
     30 C          25.5447   23.9479   -0.7475 C.2       2 UNK         0.4964 
     31 O          25.9993   24.4939    0.2603 O.2       2 UNK        -0.5047 
     32 CA         26.5074   23.3647   -1.7956 C.3       2 UNK         0.0288 
     33 CB         26.8143   24.4181   -2.8739 C.3       2 UNK        -0.2113 
     34 N          27.7650   22.9474   -1.1744 N.am      2 UNK        -0.4145 
     35 C          27.8917   21.8822   -0.3718 C.2       1 UNK         0.5006 
     36 O          26.9989   21.0453   -0.2006 O.2       1 UNK        -0.5103 
     37 C          28.6215   27.3556    0.1483 C.2       5 UNK         0.5055 
     38 O          28.4784   27.9208   -0.9384 O.2       5 UNK        -0.5220 
     39 N          29.7353   26.6931    0.4939 N.am      6 UNK        -0.4450 
     40 CA         30.9161   26.5730   -0.3684 C.3       6 UNK         0.0367 
     41 CB         31.8177   25.4355    0.1381 C.3       6 UNK        -0.1929 
     42 C          31.7113   27.8847   -0.4855 C.2       6 UNK         0.5070 
     43 O          32.2811   28.1521   -1.5436 O.2       6 UNK        -0.5237 
     44 N          31.7262   28.6782    0.5908 N.am      7 UNK        -0.4739 
     45 CA         32.3569   29.9907    0.6800 C.3       7 UNK         0.0276 
     46 CB         33.8914   29.8547    0.7347 C.3       7 UNK        -0.1927 
     47 C          31.8073   30.7097    1.9171 C.2       7 UNK         0.5013 
     48 O          31.4044   30.0479    2.8772 O.2       7 UNK        -0.5193 
     49 N          31.8011   32.0451    1.8681 N.am      8 UNK        -0.4253 
     50 CA         31.3621   32.9221    2.9553 C.3       8 UNK         0.0242 
     51 CB         30.8023   34.2154    2.3344 C.3       8 UNK        -0.2000 
     52 C          32.5168   33.2373    3.9227 C.2       8 UNK         0.4948 
     53 O          33.6642   32.8754    3.6520 O.2       8 UNK        -0.5275 
     54 N          32.1874   33.9332    5.0222 N.am      9 UNK        -0.4246 
     55 CA         33.1061   34.4755    6.0354 C.3       9 UNK         0.0261 
     56 CB         33.9345   35.6353    5.4404 C.3       9 UNK        -0.1959 
     57 C          33.9820   33.3946    6.6989 C.2       9 UNK         0.5033 
     58 O          35.2067   33.5287    6.7385 O.2       9 UNK        -0.5390 
     59 N          33.3209   32.3357    7.1910 N.am      10 UNK        -0.4215 
     60 CA         33.9075   31.1293    7.7910 C.3       10 UNK         0.0240 
     61 CB         34.6338   31.4569    9.1146 C.3       10 UNK        -0.1982 
     62 C          34.7807   30.3425    6.7927 C.2       10 UNK         0.4970 
     63 O          35.8888   29.9231    7.1332 O.2       10 UNK        -0.4916 
     64 N          34.2397   30.1515    5.5827 N.am      11 UNK        -0.4279 
     65 CA         34.8395   29.4046    4.4671 C.3       11 UNK         0.1003 
     66 C          36.1117   30.0848    3.8821 C.2       11 UNK         0.5709 
     67 N          36.0938   31.3942    3.6716 N.am      11 UNK        -0.7358 
     68 O          37.1164   29.4338    3.6030 O.2       11 UNK        -0.4999 
     69 C69        35.0287   27.8851    4.7589 C.3       12 UNK        -0.0954 
     70 S70        33.5221   27.0784    5.3937 S.3       12 UNK        -0.2268 
     71 C71        32.6822   26.6460    3.8424 C.3       12 UNK         0.0203 
     72 H72        30.9391   17.6186    0.7262 H         1 UNK         0.0888 
     73 H73        29.6840   18.0725    1.8805 H         1 UNK         0.0888 
     74 H74        29.2413   17.3045    0.3548 H         1 UNK         0.0888 
     75 H75        29.2136   20.2661    1.8587 H         1 UNK         0.3017 
     76 H76        30.0227   21.9874   -0.3315 H         1 UNK         0.0873 
     77 H77        29.1708   23.8278    1.1397 H         1 UNK         0.0745 
     78 H78        30.3559   22.8185    1.9105 H         1 UNK         0.0745 
     79 H79        30.1009   22.3504    4.3523 H         1 UNK         0.0705 
     80 H80        28.6633   22.7457    5.2588 H         1 UNK         0.0705 
     81 H81        31.6496   24.1105    3.8429 H         1 UNK         0.1334 
     82 H82        30.5603   28.2060    4.4653 H         1 UNK         0.1417 
     83 H83        27.6099   25.1216    4.8867 H         1 UNK         0.1562 
     84 H84        28.4088   28.7927    5.2699 H         1 UNK         0.0748 
     85 H85        27.4236   27.5429    5.9832 H         1 UNK         0.0748 
     86 H86        28.7509   28.4957    2.5881 H         1 UNK         0.0940 
     87 H87        27.4724   29.4425    1.9330 H         1 UNK         0.0940 
     88 H88        27.5427   26.3840    1.6839 H         1 UNK         0.0703 
     89 H89        25.7814   26.4469    0.4226 H         1 UNK         0.3081 
     90 H90        23.3989   28.6107   -0.2441 H         1 UNK         0.0719 
     91 H91        25.0897   28.2418   -2.7767 H         1 UNK         0.0809 
     92 H92        23.3439   28.4990   -2.7455 H         1 UNK         0.0809 
     93 H93        24.4277   29.7592   -2.1866 H         1 UNK         0.0809 
     94 H94        24.2531   26.1927   -1.6782 H         1 UNK         0.2990 
     95 H95        23.2513   23.9513    0.7924 H         1 UNK         0.0690 
     96 H96        21.6836   22.9900   -0.8727 H         1 UNK         0.0788 
     97 H97        21.6699   24.5046   -1.7783 H         1 UNK         0.0788 
     98 H98        20.9874   24.4343   -0.1597 H         1 UNK         0.0788 
     99 H99        23.9437   23.4488   -1.8929 H         1 UNK         0.2993 
    100 H100       26.0410   22.4946   -2.2632 H         1 UNK         0.0949 
    101 H101       27.4984   24.0263   -3.6272 H         1 UNK         0.0767 
    102 H102       25.9064   24.7248   -3.3949 H         1 UNK         0.0767 
    103 H103       27.2647   25.3161   -2.4470 H         1 UNK         0.0767 
    104 H104       28.5326   23.5982   -1.2444 H         1 UNK         0.3013 
    105 H105       29.7871   26.2589    1.4049 H         1 UNK         0.3121 
    106 H106       30.5789   26.3095   -1.3736 H         1 UNK         0.0774 
    107 H107       32.7233   25.3585   -0.4654 H         1 UNK         0.0815 
    108 H108       32.1288   25.5919    1.1700 H         1 UNK         0.0815 
    109 H109       31.3146   24.4716    0.0786 H         1 UNK         0.0815 
    110 H110       31.2146   28.4109    1.4220 H         1 UNK         0.2987 
    111 H111       32.0769   30.5723   -0.2013 H         1 UNK         0.0949 
    112 H112       34.3675   30.7905    1.0317 H         1 UNK         0.0806 
    113 H113       34.2044   29.0843    1.4380 H         1 UNK         0.0806 
    114 H114       34.2958   29.5861   -0.2412 H         1 UNK         0.0806 
    115 H115       32.2086   32.5036    1.0661 H         1 UNK         0.3010 
    116 H116       30.5671   32.4296    3.5199 H         1 UNK         0.0829 
    117 H117       29.9973   34.0001    1.6312 H         1 UNK         0.0813 
    118 H118       30.3896   34.8791    3.0949 H         1 UNK         0.0813 
    119 H119       31.5726   34.7731    1.7998 H         1 UNK         0.0813 
    120 H120       31.2125   34.1638    5.1587 H         1 UNK         0.3038 
    121 H121       32.4844   34.8931    6.8290 H         1 UNK         0.0769 
    122 H122       34.5489   36.1102    6.2063 H         1 UNK         0.0811 
    123 H123       33.2911   36.4070    5.0180 H         1 UNK         0.0811 
    124 H124       34.6060   35.2908    4.6530 H         1 UNK         0.0811 
    125 H125       32.3138   32.3339    7.1022 H         1 UNK         0.3204 
    126 H126       33.0710   30.4731    8.0368 H         1 UNK         0.0748 
    127 H127       34.9543   30.5443    9.6187 H         1 UNK         0.0771 
    128 H128       35.5238   32.0655    8.9520 H         1 UNK         0.0771 
    129 H129       33.9813   31.9939    9.8029 H         1 UNK         0.0771 
    130 H130       33.3409   30.5648    5.3867 H         1 UNK         0.2980 
    131 H131       34.1011   29.4738    3.6710 H         1 UNK         0.0545 
    132 H132       36.9127   31.8443    3.2973 H         1 UNK         0.3459 
    133 H133       35.2472   31.9375    3.8300 H         1 UNK         0.3459 
    134 H134       35.3501   27.3600    3.8576 H         1 UNK         0.0616 
    135 H135       35.8218   27.7354    5.4930 H         1 UNK         0.0616 
    136 H136       32.6770   27.5084    3.1748 H         1 UNK         0.0634 
    137 H137       33.2453   25.8599    3.3376 H         1 UNK         0.0634 
@<TRIPOS>BOND
     1    1    2 1    
     2    1   72 1    
     3    1   73 1    
     4    1   74 1    
     5    2    3 2    
     6    2    4 am   BACKBONE|DICT|INTERRES
     7    4    5 1    
     8    4   75 1    
     9    5    6 1    
    10    5   35 1    
    11    5   76 1    
    12    6    7 1    
    13    6   77 1    
    14    6   78 1    
    15    7    8 1    
    16    8    9 1    
    17    8   79 1    
    18    8   80 1    
    19    9   10 ar   
    20    9   14 ar   
    21   10   11 ar   
    22   10   81 1    
    23   11   12 ar   
    24   11   71 1    
    25   12   13 ar   
    26   12   82 1    
    27   13   14 ar   
    28   13   15 1    
    29   14   83 1    
    30   15   16 1    
    31   15   84 1    
    32   15   85 1    
    33   16   17 1    
    34   17   18 1    
    35   17   86 1    
    36   17   87 1    
    37   18   19 1    
    38   18   37 1    
    39   18   88 1    
    40   19   20 am   BACKBONE|DICT|INTERRES
    41   19   89 1    
    42   20   21 2    
    43   20   22 1    
    44   22   23 1    
    45   22   24 1    
    46   22   90 1    
    47   23   91 1    
    48   23   92 1    
    49   23   93 1    
    50   24   25 am   BACKBONE|DICT|INTERRES
    51   24   94 1    
    52   25   26 2    
    53   25   27 1    
    54   27   28 1    
    55   27   29 1    
    56   27   95 1    
    57   28   96 1    
    58   28   97 1    
    59   28   98 1    
    60   29   30 am   BACKBONE|DICT|INTERRES
    61   29   99 1    
    62   30   31 2    
    63   30   32 1    
    64   32   33 1    
    65   32   34 1    
    66   32  100 1    
    67   33  101 1    
    68   33  102 1    
    69   33  103 1    
    70   34   35 am   BACKBONE|DICT|INTERRES
    71   34  104 1    
    72   35   36 2    
    73   37   38 2    
    74   37   39 am   BACKBONE|DICT|INTERRES
    75   39   40 1    
    76   39  105 1    
    77   40   41 1    
    78   40   42 1    
    79   40  106 1    
    80   41  107 1    
    81   41  108 1    
    82   41  109 1    
    83   42   43 2    
    84   42   44 am   BACKBONE|DICT|INTERRES
    85   44   45 1    
    86   44  110 1    
    87   45   46 1    
    88   45   47 1    
    89   45  111 1    
    90   46  112 1    
    91   46  113 1    
    92   46  114 1    
    93   47   48 2    
    94   47   49 am   BACKBONE|DICT|INTERRES
    95   49   50 1    
    96   49  115 1    
    97   50   51 1    
    98   50   52 1    
    99   50  116 1    
   100   51  117 1    
   101   51  118 1    
   102   51  119 1    
   103   52   53 2    
   104   52   54 am   BACKBONE|DICT|INTERRES
   105   54   55 1    
   106   54  120 1    
   107   55   56 1    
   108   55   57 1    
   109   55  121 1    
   110   56  122 1    
   111   56  123 1    
   112   56  124 1    
   113   57   58 2    
   114   57   59 am   BACKBONE|DICT|INTERRES
   115   59   60 1    
   116   59  125 1    
   117   60   61 1    
   118   60   62 1    
   119   60  126 1    
   120   61  127 1    
   121   61  128 1    
   122   61  129 1    
   123   62   63 2    
   124   62   64 am   BACKBONE|DICT|INTERRES
   125   64   65 1    
   126   64  130 1    
   127   65   66 1    
   128   65   69 1    
   129   65  131 1    
   130   66   67 am   BACKBONE|DICT|INTERRES
   131   66   68 2    
   132   67  132 1    
   133   67  133 1    
   134   69   70 1    
   135   69  134 1    
   136   69  135 1    
   137   70   71 1    
   138   71  136 1    
   139   71  137 1    
@<TRIPOS>SUBSTRUCTURE
     1 UNK         1 GROUP             0       ****    0 ROOT    
