@<TRIPOS>MOLECULE
3R136
137   139    1
SMALL
USER_CHARGES


@<TRIPOS>ATOM
      1 CA         30.0701   21.6383   -5.0857 C.3       0 UNK        -0.1979 
      2 C          29.5212   22.6809   -4.1237 C.2       0 UNK         0.4864 
      3 O          29.1096   23.7595   -4.5561 O.2       0 UNK        -0.5359 
      4 N          29.4990   22.3699   -2.8209 N.am      1 UNK        -0.4318 
      5 CA         29.0266   23.2435   -1.7385 C.3       1 UNK         0.0824 
      6 C6         29.6600   22.8617   -0.3749 C.3       12 UNK        -0.0944 
      7 S7         31.4797   23.0145   -0.4020 S.3       12 UNK        -0.2672 
      8 C8         31.6945   24.7150    0.2216 C.3       12 UNK         0.0333 
      9 C9         32.0388   24.7926    1.7069 C.ar      12 UNK        -0.0807 
     10 C10        33.0173   25.6947    2.1392 C.ar      12 UNK        -0.0894 
     11 C11        33.3577   25.8016    3.4922 C.ar      12 UNK        -0.0804 
     12 C12        32.6993   24.9838    4.4184 C.ar      12 UNK        -0.0824 
     13 C13        31.6967   24.1027    4.0090 C.ar      12 UNK        -0.0762 
     14 C14        31.3728   24.0074    2.6541 C.ar      12 UNK        -0.0782 
     15 C15        30.9449   23.2736    5.0383 C.3       12 UNK         0.0230 
     16 S16        29.2890   23.9570    5.3661 S.3       12 UNK        -0.2608 
     17 C17        29.6725   25.6239    6.0164 C.3       12 UNK        -0.0989 
     18 CA         29.4684   26.7532    4.9667 C.3       5 UNK         0.0716 
     19 N          28.1262   26.6785    4.3628 N.am      5 UNK        -0.4135 
     20 C          27.7044   27.2489    3.2279 C.2       4 UNK         0.5031 
     21 O          28.3800   28.0309    2.5500 O.2       4 UNK        -0.5229 
     22 CA         26.2574   26.9602    2.8222 C.3       4 UNK         0.0329 
     23 CB         25.2814   27.8338    3.6338 C.3       4 UNK        -0.2001 
     24 N          26.1063   27.2328    1.3955 N.am      4 UNK        -0.4303 
     25 C          25.1518   26.7306    0.6043 C.2       3 UNK         0.5044 
     26 O          24.2656   25.9775    1.0105 O.2       3 UNK        -0.5152 
     27 CA         25.1750   27.1360   -0.8837 C.3       3 UNK         0.0319 
     28 CB         26.0846   28.3423   -1.1989 C.3       3 UNK        -0.2001 
     29 N          25.5821   26.0017   -1.7131 N.am      3 UNK        -0.4354 
     30 C          24.7723   25.0231   -2.1436 C.2       2 UNK         0.4964 
     31 O          23.5554   25.0038   -1.9540 O.2       2 UNK        -0.5047 
     32 CA         25.4144   23.8767   -2.9482 C.3       2 UNK         0.0288 
     33 CB         25.1091   24.0338   -4.4474 C.3       2 UNK        -0.2113 
     34 N          26.8653   23.7641   -2.7725 N.am      2 UNK        -0.4145 
     35 C          27.4820   23.2834   -1.6848 C.2       1 UNK         0.5006 
     36 O          26.8812   22.8743   -0.6895 O.2       1 UNK        -0.5103 
     37 C          29.8151   28.1492    5.5515 C.2       5 UNK         0.5055 
     38 O          30.4598   28.2439    6.5974 O.2       5 UNK        -0.5220 
     39 N          29.3715   29.2084    4.8745 N.am      6 UNK        -0.4450 
     40 CA         29.5658   30.6179    5.2023 C.3       6 UNK         0.0367 
     41 CB         28.6511   31.0457    6.3644 C.3       6 UNK        -0.1929 
     42 C          29.3078   31.4655    3.9504 C.2       6 UNK         0.5070 
     43 O          30.0480   32.4134    3.6912 O.2       6 UNK        -0.5237 
     44 N          28.2700   31.0938    3.1852 N.am      7 UNK        -0.4739 
     45 CA         27.9088   31.7106    1.9084 C.3       7 UNK         0.0276 
     46 CB         26.4613   31.3321    1.5561 C.3       7 UNK        -0.1927 
     47 C          28.8642   31.3240    0.7666 C.2       7 UNK         0.5013 
     48 O          29.1665   32.1737   -0.0718 O.2       7 UNK        -0.5193 
     49 N          29.3186   30.0610    0.7487 N.am      8 UNK        -0.4253 
     50 CA         30.2854   29.5471   -0.2265 C.3       8 UNK         0.0242 
     51 CB         30.3051   28.0112   -0.1734 C.3       8 UNK        -0.2000 
     52 C          31.6965   30.1075    0.0117 C.2       8 UNK         0.4948 
     53 O          32.3524   30.5450   -0.9343 O.2       8 UNK        -0.5275 
     54 N          32.1179   30.0924    1.2787 N.am      9 UNK        -0.4246 
     55 CA         33.3648   30.6311    1.8039 C.3       9 UNK         0.0261 
     56 CB         34.5582   29.7437    1.4045 C.3       9 UNK        -0.1959 
     57 C          33.1983   30.7037    3.3240 C.2       9 UNK         0.5033 
     58 O          32.4293   29.9169    3.8834 O.2       9 UNK        -0.5390 
     59 N          33.9066   31.6373    3.9676 N.am      10 UNK        -0.4215 
     60 CA         33.7669   31.9769    5.3873 C.3       10 UNK         0.0240 
     61 CB         34.3111   33.4018    5.6077 C.3       10 UNK        -0.1982 
     62 C          34.4000   30.9453    6.3457 C.2       10 UNK         0.4970 
     63 O          35.2702   31.3041    7.1417 O.2       10 UNK        -0.4916 
     64 N          33.9496   29.6885    6.2657 N.am      11 UNK        -0.4279 
     65 CA         34.2694   28.6271    7.2314 C.3       11 UNK         0.1003 
     66 C          33.5861   28.8768    8.6032 C.2       11 UNK         0.5709 
     67 N          32.2696   29.0382    8.6477 N.am      11 UNK        -0.7358 
     68 O          34.2551   28.9304    9.6325 O.2       11 UNK        -0.4999 
     69 C69        33.9316   27.2196    6.6776 C.3       12 UNK        -0.0954 
     70 S70        35.2021   26.6009    5.5229 S.3       12 UNK        -0.2268 
     71 C71        34.4088   26.8382    3.8975 C.3       12 UNK         0.0203 
     72 H72        29.3048   21.3544   -5.8075 H         1 UNK         0.0888 
     73 H73        30.9210   22.0443   -5.6321 H         1 UNK         0.0888 
     74 H74        30.3986   20.7379   -4.5668 H         1 UNK         0.0888 
     75 H75        29.8394   21.4659   -2.5252 H         1 UNK         0.3017 
     76 H76        29.3464   24.2634   -1.9647 H         1 UNK         0.0873 
     77 H77        29.2601   23.4884    0.4245 H         1 UNK         0.0745 
     78 H78        29.4063   21.8341   -0.1077 H         1 UNK         0.0745 
     79 H79        32.4806   25.1859   -0.3707 H         1 UNK         0.0705 
     80 H80        30.7880   25.2894    0.0361 H         1 UNK         0.0705 
     81 H81        33.5168   26.3247    1.4158 H         1 UNK         0.1334 
     82 H82        32.9400   25.0368    5.4687 H         1 UNK         0.1417 
     83 H83        30.5954   23.3234    2.3453 H         1 UNK         0.1562 
     84 H84        31.5029   23.2116    5.9740 H         1 UNK         0.0748 
     85 H85        30.8413   22.2496    4.6765 H         1 UNK         0.0748 
     86 H86        30.6935   25.6310    6.4016 H         1 UNK         0.0940 
     87 H87        29.0317   25.7973    6.8831 H         1 UNK         0.0940 
     88 H88        30.1867   26.5893    4.1608 H         1 UNK         0.0703 
     89 H89        27.4802   26.0800    4.8567 H         1 UNK         0.3081 
     90 H90        26.0530   25.9035    3.0090 H         1 UNK         0.0719 
     91 H91        25.3874   27.6569    4.7049 H         1 UNK         0.0809 
     92 H92        25.4492   28.8971    3.4600 H         1 UNK         0.0809 
     93 H93        24.2450   27.6155    3.3761 H         1 UNK         0.0809 
     94 H94        26.8417   27.8035    1.0004 H         1 UNK         0.2990 
     95 H95        24.1546   27.4218   -1.1480 H         1 UNK         0.0690 
     96 H96        25.7937   29.2168   -0.6165 H         1 UNK         0.0788 
     97 H97        26.0026   28.6252   -2.2487 H         1 UNK         0.0788 
     98 H98        27.1358   28.1385   -0.9990 H         1 UNK         0.0788 
     99 H99        26.5657   25.9236   -1.9223 H         1 UNK         0.2993 
    100 H100       24.9573   22.9470   -2.6018 H         1 UNK         0.0949 
    101 H101       25.4894   23.1877   -5.0203 H         1 UNK         0.0767 
    102 H102       24.0339   24.0865   -4.6251 H         1 UNK         0.0767 
    103 H103       25.5528   24.9427   -4.8560 H         1 UNK         0.0767 
    104 H104       27.4522   24.0208   -3.5626 H         1 UNK         0.3013 
    105 H105       28.9565   29.0088    3.9683 H         1 UNK         0.3121 
    106 H106       30.6030   30.7673    5.5048 H         1 UNK         0.0774 
    107 H107       28.7705   32.1077    6.5823 H         1 UNK         0.0815 
    108 H108       27.5989   30.8733    6.1359 H         1 UNK         0.0815 
    109 H109       28.8888   30.5009    7.2781 H         1 UNK         0.0815 
    110 H110       27.6833   30.3349    3.4964 H         1 UNK         0.2987 
    111 H111       27.9586   32.7958    2.0247 H         1 UNK         0.0949 
    112 H112       26.3312   30.2524    1.4868 H         1 UNK         0.0806 
    113 H113       25.7615   31.7056    2.3040 H         1 UNK         0.0806 
    114 H114       26.1667   31.7604    0.5969 H         1 UNK         0.0806 
    115 H115       29.0038   29.4124    1.4654 H         1 UNK         0.3010 
    116 H116       29.9641   29.8523   -1.2249 H         1 UNK         0.0829 
    117 H117       31.0133   27.6091   -0.8991 H         1 UNK         0.0813 
    118 H118       30.5997   27.6451    0.8113 H         1 UNK         0.0813 
    119 H119       29.3294   27.5876   -0.4052 H         1 UNK         0.0813 
    120 H120       31.5100   29.7305    2.0041 H         1 UNK         0.3038 
    121 H121       33.5048   31.6418    1.4150 H         1 UNK         0.0769 
    122 H122       34.3898   28.7012    1.6697 H         1 UNK         0.0811 
    123 H123       35.4757   30.0667    1.8979 H         1 UNK         0.0811 
    124 H124       34.7391   29.7847    0.3304 H         1 UNK         0.0811 
    125 H125       34.5500   32.2063    3.4361 H         1 UNK         0.3204 
    126 H126       32.7009   32.0022    5.6227 H         1 UNK         0.0748 
    127 H127       34.1757   33.7178    6.6431 H         1 UNK         0.0771 
    128 H128       35.3764   33.4675    5.3824 H         1 UNK         0.0771 
    129 H129       33.7894   34.1269    4.9825 H         1 UNK         0.0771 
    130 H130       33.2437   29.4828    5.5644 H         1 UNK         0.2980 
    131 H131       35.3454   28.6614    7.4153 H         1 UNK         0.0545 
    132 H132       31.8274   29.2054    9.5366 H         1 UNK         0.3459 
    133 H133       31.6938   28.8957    7.8206 H         1 UNK         0.3459 
    134 H134       32.9508   27.2240    6.2007 H         1 UNK         0.0616 
    135 H135       33.8713   26.4878    7.4855 H         1 UNK         0.0616 
    136 H136       33.9539   27.8261    3.8745 H         1 UNK         0.0634 
    137 H137       35.2038   26.8459    3.1505 H         1 UNK         0.0634 
@<TRIPOS>BOND
     1    1    2 1    
     2    1   72 1    
     3    1   73 1    
     4    1   74 1    
     5    2    3 2    
     6    2    4 am   BACKBONE|DICT|INTERRES
     7    4    5 1    
     8    4   75 1    
     9    5    6 1    
    10    5   35 1    
    11    5   76 1    
    12    6    7 1    
    13    6   77 1    
    14    6   78 1    
    15    7    8 1    
    16    8    9 1    
    17    8   79 1    
    18    8   80 1    
    19    9   10 ar   
    20    9   14 ar   
    21   10   11 ar   
    22   10   81 1    
    23   11   12 ar   
    24   11   71 1    
    25   12   13 ar   
    26   12   82 1    
    27   13   14 ar   
    28   13   15 1    
    29   14   83 1    
    30   15   16 1    
    31   15   84 1    
    32   15   85 1    
    33   16   17 1    
    34   17   18 1    
    35   17   86 1    
    36   17   87 1    
    37   18   19 1    
    38   18   37 1    
    39   18   88 1    
    40   19   20 am   BACKBONE|DICT|INTERRES
    41   19   89 1    
    42   20   21 2    
    43   20   22 1    
    44   22   23 1    
    45   22   24 1    
    46   22   90 1    
    47   23   91 1    
    48   23   92 1    
    49   23   93 1    
    50   24   25 am   BACKBONE|DICT|INTERRES
    51   24   94 1    
    52   25   26 2    
    53   25   27 1    
    54   27   28 1    
    55   27   29 1    
    56   27   95 1    
    57   28   96 1    
    58   28   97 1    
    59   28   98 1    
    60   29   30 am   BACKBONE|DICT|INTERRES
    61   29   99 1    
    62   30   31 2    
    63   30   32 1    
    64   32   33 1    
    65   32   34 1    
    66   32  100 1    
    67   33  101 1    
    68   33  102 1    
    69   33  103 1    
    70   34   35 am   BACKBONE|DICT|INTERRES
    71   34  104 1    
    72   35   36 2    
    73   37   38 2    
    74   37   39 am   BACKBONE|DICT|INTERRES
    75   39   40 1    
    76   39  105 1    
    77   40   41 1    
    78   40   42 1    
    79   40  106 1    
    80   41  107 1    
    81   41  108 1    
    82   41  109 1    
    83   42   43 2    
    84   42   44 am   BACKBONE|DICT|INTERRES
    85   44   45 1    
    86   44  110 1    
    87   45   46 1    
    88   45   47 1    
    89   45  111 1    
    90   46  112 1    
    91   46  113 1    
    92   46  114 1    
    93   47   48 2    
    94   47   49 am   BACKBONE|DICT|INTERRES
    95   49   50 1    
    96   49  115 1    
    97   50   51 1    
    98   50   52 1    
    99   50  116 1    
   100   51  117 1    
   101   51  118 1    
   102   51  119 1    
   103   52   53 2    
   104   52   54 am   BACKBONE|DICT|INTERRES
   105   54   55 1    
   106   54  120 1    
   107   55   56 1    
   108   55   57 1    
   109   55  121 1    
   110   56  122 1    
   111   56  123 1    
   112   56  124 1    
   113   57   58 2    
   114   57   59 am   BACKBONE|DICT|INTERRES
   115   59   60 1    
   116   59  125 1    
   117   60   61 1    
   118   60   62 1    
   119   60  126 1    
   120   61  127 1    
   121   61  128 1    
   122   61  129 1    
   123   62   63 2    
   124   62   64 am   BACKBONE|DICT|INTERRES
   125   64   65 1    
   126   64  130 1    
   127   65   66 1    
   128   65   69 1    
   129   65  131 1    
   130   66   67 am   BACKBONE|DICT|INTERRES
   131   66   68 2    
   132   67  132 1    
   133   67  133 1    
   134   69   70 1    
   135   69  134 1    
   136   69  135 1    
   137   70   71 1    
   138   71  136 1    
   139   71  137 1    
@<TRIPOS>SUBSTRUCTURE
     1 UNK         1 GROUP             0       ****    0 ROOT    
