@<TRIPOS>MOLECULE
3R136
137   139    1
SMALL
USER_CHARGES


@<TRIPOS>ATOM
      1 CA         30.6113   26.1127    5.2296 C.3       0 UNK        -0.1979 
      2 C          29.9007   24.8480    4.7750 C.2       0 UNK         0.4864 
      3 O          29.7738   23.9027    5.5548 O.2       0 UNK        -0.5359 
      4 N          29.4519   24.8306    3.5172 N.am      1 UNK        -0.4318 
      5 CA         28.6816   23.7539    2.8933 C.3       1 UNK         0.0824 
      6 C6         29.3532   23.2984    1.5662 C.3       12 UNK        -0.0944 
      7 S7         30.7767   22.1805    1.8023 S.3       12 UNK        -0.2672 
      8 C8         32.1776   23.2811    2.2081 C.3       12 UNK         0.0333 
      9 C9         32.3641   24.4780    1.2793 C.ar      12 UNK        -0.0807 
     10 C10        32.7416   25.7070    1.8277 C.ar      12 UNK        -0.0894 
     11 C11        32.9531   26.8189    1.0098 C.ar      12 UNK        -0.0804 
     12 C12        32.7479   26.7064   -0.3678 C.ar      12 UNK        -0.0824 
     13 C13        32.3527   25.4903   -0.9339 C.ar      12 UNK        -0.0762 
     14 C14        32.1960   24.3707   -0.1070 C.ar      12 UNK        -0.0782 
     15 C15        32.1205   25.4104   -2.4412 C.3       12 UNK         0.0230 
     16 S16        30.6603   24.4319   -2.9412 S.3       12 UNK        -0.2608 
     17 C17        29.2983   25.2174   -2.0180 C.3       12 UNK        -0.0989 
     18 CA         28.7632   26.5167   -2.6871 C.3       5 UNK         0.0716 
     19 N          27.3020   26.5329   -2.7612 N.am      5 UNK        -0.4135 
     20 C          26.5843   27.1074   -3.7366 C.2       4 UNK         0.5031 
     21 O          27.0700   27.5604   -4.7738 O.2       4 UNK        -0.5229 
     22 CA         25.0608   27.2080   -3.5194 C.3       4 UNK         0.0329 
     23 CB         24.3473   26.0018   -4.1514 C.3       4 UNK        -0.2001 
     24 N          24.6806   27.3074   -2.1071 N.am      4 UNK        -0.4303 
     25 C          24.9799   28.3363   -1.2997 C.2       3 UNK         0.5044 
     26 O          25.5126   29.3767   -1.6856 O.2       3 UNK        -0.5152 
     27 CA         24.6700   28.1678    0.2011 C.3       3 UNK         0.0319 
     28 CB         23.3690   28.8983    0.5687 C.3       3 UNK        -0.2001 
     29 N          24.5929   26.7770    0.6707 N.am      3 UNK        -0.4354 
     30 C          25.5810   25.8760    0.5875 C.2       2 UNK         0.4964 
     31 O          26.6546   26.0842    0.0147 O.2       2 UNK        -0.5047 
     32 CA         25.3047   24.4886    1.1848 C.3       2 UNK         0.0288 
     33 CB         24.6527   23.5770    0.1324 C.3       2 UNK        -0.2113 
     34 N          26.5584   23.8820    1.6307 N.am      2 UNK        -0.4145 
     35 C          27.2351   24.2733    2.7190 C.2       1 UNK         0.5006 
     36 O          26.7441   25.0194    3.5714 O.2       1 UNK        -0.5103 
     37 C          29.2065   27.7833   -1.9309 C.2       5 UNK         0.5055 
     38 O          29.8867   28.6316   -2.5088 O.2       5 UNK        -0.5220 
     39 N          28.7571   27.8780   -0.6715 N.am      6 UNK        -0.4450 
     40 CA         28.8952   28.9490    0.3148 C.3       6 UNK         0.0367 
     41 CB         30.2745   29.6347    0.2980 C.3       6 UNK        -0.1929 
     42 C          28.6579   28.3133    1.6902 C.2       6 UNK         0.5070 
     43 O          29.2127   27.2497    1.9778 O.2       6 UNK        -0.5237 
     44 N          27.8468   28.9798    2.5176 N.am      7 UNK        -0.4739 
     45 CA         27.4721   28.5181    3.8590 C.3       7 UNK         0.0276 
     46 CB         25.9691   28.7779    4.0641 C.3       7 UNK        -0.1927 
     47 C          28.3041   29.1716    4.9783 C.2       7 UNK         0.5013 
     48 O          28.0760   28.8633    6.1487 O.2       7 UNK        -0.5193 
     49 N          29.2302   30.0722    4.6191 N.am      8 UNK        -0.4253 
     50 CA         30.1100   30.7895    5.5439 C.3       8 UNK         0.0242 
     51 CB         30.8589   31.8918    4.7774 C.3       8 UNK        -0.2000 
     52 C          31.1042   29.8431    6.2351 C.2       8 UNK         0.4948 
     53 O          31.7722   29.0644    5.5501 O.2       8 UNK        -0.5275 
     54 N          31.2013   29.9457    7.5682 N.am      9 UNK        -0.4246 
     55 CA         32.1014   29.1560    8.4135 C.3       9 UNK         0.0261 
     56 CB         31.8729   29.5207    9.8894 C.3       9 UNK        -0.1959 
     57 C          33.5708   29.3678    8.0176 C.2       9 UNK         0.5033 
     58 O          34.0366   30.5105    8.0123 O.2       9 UNK        -0.5390 
     59 N          34.2413   28.2726    7.6295 N.am      10 UNK        -0.4215 
     60 CA         35.5983   28.2225    7.0630 C.3       10 UNK         0.0240 
     61 CB         36.6474   28.5459    8.1488 C.3       10 UNK        -0.1982 
     62 C          35.7753   29.0879    5.7936 C.2       10 UNK         0.4970 
     63 O          36.8924   29.5208    5.5052 O.2       10 UNK        -0.4916 
     64 N          34.6699   29.3374    5.0761 N.am      11 UNK        -0.4279 
     65 CA         34.5562   30.2563    3.9345 C.3       11 UNK         0.1003 
     66 C          34.7483   31.7602    4.3006 C.2       11 UNK         0.5709 
     67 N          34.6501   32.1558    5.5660 N.am      11 UNK        -0.7358 
     68 O          34.9546   32.5936    3.4214 O.2       11 UNK        -0.4999 
     69 C69        35.3804   29.8149    2.6887 C.3       12 UNK        -0.0954 
     70 S70        35.1117   28.0768    2.1971 S.3       12 UNK        -0.2268 
     71 C71        33.3882   28.1420    1.6215 C.3       12 UNK         0.0203 
     72 H72        31.6224   25.8817    5.5639 H         1 UNK         0.0888 
     73 H73        30.6824   26.8459    4.4250 H         1 UNK         0.0888 
     74 H74        30.0731   26.5729    6.0579 H         1 UNK         0.0888 
     75 H75        29.5185   25.6776    2.9535 H         1 UNK         0.3017 
     76 H76        28.6111   22.8932    3.5610 H         1 UNK         0.0873 
     77 H77        29.6396   24.1610    0.9662 H         1 UNK         0.0745 
     78 H78        28.6735   22.7175    0.9436 H         1 UNK         0.0745 
     79 H79        33.0932   22.6889    2.1899 H         1 UNK         0.0705 
     80 H80        32.0581   23.6142    3.2393 H         1 UNK         0.0705 
     81 H81        32.8902   25.8005    2.8950 H         1 UNK         0.1334 
     82 H82        32.8930   27.5710   -1.0014 H         1 UNK         0.1417 
     83 H83        31.9160   23.4203   -0.5400 H         1 UNK         0.1562 
     84 H84        33.0060   24.9753   -2.9054 H         1 UNK         0.0748 
     85 H85        32.0145   26.4112   -2.8630 H         1 UNK         0.0748 
     86 H86        29.6023   25.3672   -0.9817 H         1 UNK         0.0940 
     87 H87        28.5061   24.4688   -1.9634 H         1 UNK         0.0940 
     88 H88        29.1615   26.5812   -3.7022 H         1 UNK         0.0703 
     89 H89        26.8209   26.2432   -1.9161 H         1 UNK         0.3081 
     90 H90        24.7164   28.1137   -4.0234 H         1 UNK         0.0719 
     91 H91        24.5917   25.9158   -5.2112 H         1 UNK         0.0809 
     92 H92        24.6355   25.0643   -3.6738 H         1 UNK         0.0809 
     93 H93        23.2638   26.0978   -4.0784 H         1 UNK         0.0809 
     94 H94        24.2211   26.5056   -1.7011 H         1 UNK         0.2990 
     95 H95        25.4886   28.6434    0.7442 H         1 UNK         0.0690 
     96 H96        23.4061   29.9436    0.2581 H         1 UNK         0.0788 
     97 H97        23.1989   28.8901    1.6456 H         1 UNK         0.0788 
     98 H98        22.5017   28.4455    0.0864 H         1 UNK         0.0788 
     99 H99        23.7332   26.5093    1.1293 H         1 UNK         0.2993 
    100 H100       24.6330   24.5904    2.0403 H         1 UNK         0.0949 
    101 H101       24.4585   22.5830    0.5363 H         1 UNK         0.0767 
    102 H102       23.6953   23.9817   -0.1989 H         1 UNK         0.0767 
    103 H103       25.2821   23.4622   -0.7514 H         1 UNK         0.0767 
    104 H104       27.0200   23.2785    0.9673 H         1 UNK         0.3013 
    105 H105       28.1938   27.1043   -0.3214 H         1 UNK         0.3121 
    106 H106       28.1181   29.6889    0.1155 H         1 UNK         0.0774 
    107 H107       31.0718   28.8972    0.2772 H         1 UNK         0.0815 
    108 H108       30.3911   30.2810   -0.5716 H         1 UNK         0.0815 
    109 H109       30.4238   30.2603    1.1789 H         1 UNK         0.0815 
    110 H110       27.4423   29.8552    2.2144 H         1 UNK         0.2987 
    111 H111       27.6380   27.4425    3.9420 H         1 UNK         0.0949 
    112 H112       25.6391   28.4219    5.0410 H         1 UNK         0.0806 
    113 H113       25.7280   29.8397    4.0039 H         1 UNK         0.0806 
    114 H114       25.3738   28.2524    3.3174 H         1 UNK         0.0806 
    115 H115       29.3735   30.2342    3.6347 H         1 UNK         0.3010 
    116 H116       29.4834   31.2627    6.3030 H         1 UNK         0.0829 
    117 H117       31.4506   31.4836    3.9577 H         1 UNK         0.0813 
    118 H118       30.1680   32.6239    4.3591 H         1 UNK         0.0813 
    119 H119       31.5421   32.4315    5.4351 H         1 UNK         0.0813 
    120 H120       30.6351   30.6340    8.0424 H         1 UNK         0.3038 
    121 H121       31.8404   28.1044    8.2770 H         1 UNK         0.0769 
    122 H122       32.0862   30.5730   10.0830 H         1 UNK         0.0811 
    123 H123       32.5209   28.9325   10.5408 H         1 UNK         0.0811 
    124 H124       30.8448   29.3240   10.1938 H         1 UNK         0.0811 
    125 H125       33.7515   27.3883    7.6499 H         1 UNK         0.3204 
    126 H126       35.7588   27.1914    6.7445 H         1 UNK         0.0748 
    127 H127       37.6600   28.3765    7.7808 H         1 UNK         0.0771 
    128 H128       36.5879   29.5865    8.4700 H         1 UNK         0.0771 
    129 H129       36.5156   27.9156    9.0283 H         1 UNK         0.0771 
    130 H130       33.7816   28.9689    5.4002 H         1 UNK         0.2980 
    131 H131       33.5069   30.2037    3.6489 H         1 UNK         0.0545 
    132 H132       34.7683   33.1323    5.7823 H         1 UNK         0.3459 
    133 H133       34.4736   31.4938    6.3148 H         1 UNK         0.3459 
    134 H134       36.4470   29.9499    2.8731 H         1 UNK         0.0616 
    135 H135       35.1425   30.4455    1.8302 H         1 UNK         0.0616 
    136 H136       32.7271   28.3803    2.4560 H         1 UNK         0.0634 
    137 H137       33.2939   28.9539    0.8994 H         1 UNK         0.0634 
@<TRIPOS>BOND
     1    1    2 1    
     2    1   72 1    
     3    1   73 1    
     4    1   74 1    
     5    2    3 2    
     6    2    4 am   BACKBONE|DICT|INTERRES
     7    4    5 1    
     8    4   75 1    
     9    5    6 1    
    10    5   35 1    
    11    5   76 1    
    12    6    7 1    
    13    6   77 1    
    14    6   78 1    
    15    7    8 1    
    16    8    9 1    
    17    8   79 1    
    18    8   80 1    
    19    9   10 ar   
    20    9   14 ar   
    21   10   11 ar   
    22   10   81 1    
    23   11   12 ar   
    24   11   71 1    
    25   12   13 ar   
    26   12   82 1    
    27   13   14 ar   
    28   13   15 1    
    29   14   83 1    
    30   15   16 1    
    31   15   84 1    
    32   15   85 1    
    33   16   17 1    
    34   17   18 1    
    35   17   86 1    
    36   17   87 1    
    37   18   19 1    
    38   18   37 1    
    39   18   88 1    
    40   19   20 am   BACKBONE|DICT|INTERRES
    41   19   89 1    
    42   20   21 2    
    43   20   22 1    
    44   22   23 1    
    45   22   24 1    
    46   22   90 1    
    47   23   91 1    
    48   23   92 1    
    49   23   93 1    
    50   24   25 am   BACKBONE|DICT|INTERRES
    51   24   94 1    
    52   25   26 2    
    53   25   27 1    
    54   27   28 1    
    55   27   29 1    
    56   27   95 1    
    57   28   96 1    
    58   28   97 1    
    59   28   98 1    
    60   29   30 am   BACKBONE|DICT|INTERRES
    61   29   99 1    
    62   30   31 2    
    63   30   32 1    
    64   32   33 1    
    65   32   34 1    
    66   32  100 1    
    67   33  101 1    
    68   33  102 1    
    69   33  103 1    
    70   34   35 am   BACKBONE|DICT|INTERRES
    71   34  104 1    
    72   35   36 2    
    73   37   38 2    
    74   37   39 am   BACKBONE|DICT|INTERRES
    75   39   40 1    
    76   39  105 1    
    77   40   41 1    
    78   40   42 1    
    79   40  106 1    
    80   41  107 1    
    81   41  108 1    
    82   41  109 1    
    83   42   43 2    
    84   42   44 am   BACKBONE|DICT|INTERRES
    85   44   45 1    
    86   44  110 1    
    87   45   46 1    
    88   45   47 1    
    89   45  111 1    
    90   46  112 1    
    91   46  113 1    
    92   46  114 1    
    93   47   48 2    
    94   47   49 am   BACKBONE|DICT|INTERRES
    95   49   50 1    
    96   49  115 1    
    97   50   51 1    
    98   50   52 1    
    99   50  116 1    
   100   51  117 1    
   101   51  118 1    
   102   51  119 1    
   103   52   53 2    
   104   52   54 am   BACKBONE|DICT|INTERRES
   105   54   55 1    
   106   54  120 1    
   107   55   56 1    
   108   55   57 1    
   109   55  121 1    
   110   56  122 1    
   111   56  123 1    
   112   56  124 1    
   113   57   58 2    
   114   57   59 am   BACKBONE|DICT|INTERRES
   115   59   60 1    
   116   59  125 1    
   117   60   61 1    
   118   60   62 1    
   119   60  126 1    
   120   61  127 1    
   121   61  128 1    
   122   61  129 1    
   123   62   63 2    
   124   62   64 am   BACKBONE|DICT|INTERRES
   125   64   65 1    
   126   64  130 1    
   127   65   66 1    
   128   65   69 1    
   129   65  131 1    
   130   66   67 am   BACKBONE|DICT|INTERRES
   131   66   68 2    
   132   67  132 1    
   133   67  133 1    
   134   69   70 1    
   135   69  134 1    
   136   69  135 1    
   137   70   71 1    
   138   71  136 1    
   139   71  137 1    
@<TRIPOS>SUBSTRUCTURE
     1 UNK         1 GROUP             0       ****    0 ROOT    
