@<TRIPOS>MOLECULE
3R136
137   139    1
SMALL
USER_CHARGES


@<TRIPOS>ATOM
      1 CA         29.8387   18.8628    1.3140 C.3       0 UNK        -0.1979 
      2 C          29.3422   20.2697    1.0185 C.2       0 UNK         0.4864 
      3 O          28.6273   20.8478    1.8381 O.2       0 UNK        -0.5359 
      4 N          29.7070   20.8185   -0.1495 N.am      1 UNK        -0.4318 
      5 CA         29.4072   22.1676   -0.6638 C.3       1 UNK         0.0824 
      6 C6         29.9422   23.3184    0.2272 C.3       12 UNK        -0.0944 
      7 S7         31.7579   23.2966    0.4087 S.3       12 UNK        -0.2672 
      8 C8         31.9773   22.7434    2.1300 C.3       12 UNK         0.0333 
      9 C9         31.4557   23.7639    3.1307 C.ar      12 UNK        -0.0807 
     10 C10        32.2149   24.8943    3.4431 C.ar      12 UNK        -0.0894 
     11 C11        31.7433   25.8332    4.3656 C.ar      12 UNK        -0.0804 
     12 C12        30.5040   25.6314    4.9817 C.ar      12 UNK        -0.0824 
     13 C13        29.7308   24.5089    4.6666 C.ar      12 UNK        -0.0762 
     14 C14        30.2177   23.5736    3.7503 C.ar      12 UNK        -0.0782 
     15 C15        28.3725   24.2964    5.3179 C.3       12 UNK         0.0230 
     16 S16        27.1799   25.5958    4.8694 S.3       12 UNK        -0.2608 
     17 C17        27.0185   25.4037    3.0560 C.3       12 UNK        -0.0989 
     18 CA         27.8001   26.4508    2.2157 C.3       5 UNK         0.0716 
     19 N          27.5982   26.2345    0.7771 N.am      5 UNK        -0.4135 
     20 C          28.3025   26.8514   -0.1874 C.2       4 UNK         0.5031 
     21 O          29.2974   27.5384    0.0442 O.2       4 UNK        -0.5229 
     22 CA         27.8476   26.6998   -1.6546 C.3       4 UNK         0.0329 
     23 CB         28.9717   26.1458   -2.5487 C.3       4 UNK        -0.2001 
     24 N          26.6449   25.8799   -1.8199 N.am      4 UNK        -0.4303 
     25 C          25.3907   26.3423   -1.7011 C.2       3 UNK         0.5044 
     26 O          25.1185   27.5253   -1.4962 O.2       3 UNK        -0.5152 
     27 CA         24.2362   25.3256   -1.8144 C.3       3 UNK         0.0319 
     28 CB         23.5996   25.3908   -3.2121 C.3       3 UNK        -0.2001 
     29 N          24.6150   23.9387   -1.5268 N.am      3 UNK        -0.4354 
     30 C          25.1090   23.4951   -0.3630 C.2       2 UNK         0.4964 
     31 O          25.2891   24.2164    0.6180 O.2       2 UNK        -0.5047 
     32 CA         25.5368   22.0180   -0.2910 C.3       2 UNK         0.0288 
     33 CB         25.0094   21.1460   -1.4539 C.3       2 UNK        -0.2113 
     34 N          26.9947   21.8992   -0.1829 N.am      2 UNK        -0.4145 
     35 C          27.9205   22.4018   -1.0130 C.2       1 UNK         0.5006 
     36 O          27.6447   23.0414   -2.0301 O.2       1 UNK        -0.5103 
     37 C          27.4164   27.9034    2.5838 C.2       5 UNK         0.5055 
     38 O          26.3999   28.4110    2.1014 O.2       5 UNK        -0.5220 
     39 N          28.2237   28.5296    3.4440 N.am      6 UNK        -0.4450 
     40 CA         28.0354   29.8797    3.9646 C.3       6 UNK         0.0367 
     41 CB         28.5356   30.9191    2.9375 C.3       6 UNK        -0.1929 
     42 C          28.7262   29.9496    5.3358 C.2       6 UNK         0.5070 
     43 O          28.5672   29.0235    6.1336 O.2       6 UNK        -0.5237 
     44 N          29.4988   31.0107    5.5876 N.am      7 UNK        -0.4739 
     45 CA         30.3579   31.1616    6.7570 C.3       7 UNK         0.0276 
     46 CB         29.5851   31.8706    7.8830 C.3       7 UNK        -0.1927 
     47 C          31.6014   31.9615    6.3541 C.2       7 UNK         0.5013 
     48 O          31.5297   32.7724    5.4257 O.2       7 UNK        -0.5193 
     49 N          32.7041   31.7410    7.0829 N.am      8 UNK        -0.4253 
     50 CA         34.0023   32.4085    6.9329 C.3       8 UNK         0.0242 
     51 CB         33.9101   33.8686    7.4367 C.3       8 UNK        -0.2000 
     52 C          34.5766   32.2619    5.5075 C.2       8 UNK         0.4948 
     53 O          34.6055   31.1492    4.9808 O.2       8 UNK        -0.5275 
     54 N          35.0243   33.3736    4.9095 N.am      9 UNK        -0.4246 
     55 CA         35.6432   33.4340    3.5825 C.3       9 UNK         0.0261 
     56 CB         36.3662   34.7844    3.4374 C.3       9 UNK        -0.1959 
     57 C          34.6722   33.2128    2.4059 C.2       9 UNK         0.5033 
     58 O          35.1406   33.0631    1.2763 O.2       9 UNK        -0.5390 
     59 N          33.3549   33.2052    2.6601 N.am      10 UNK        -0.4215 
     60 CA         32.3209   33.0083    1.6382 C.3       10 UNK         0.0240 
     61 CB         30.9883   33.5844    2.1453 C.3       10 UNK        -0.1982 
     62 C          32.1564   31.5435    1.1848 C.2       10 UNK         0.4970 
     63 O          31.4255   31.3053    0.2227 O.2       10 UNK        -0.4916 
     64 N          32.8201   30.5993    1.8606 N.am      11 UNK        -0.4279 
     65 CA         32.8154   29.1649    1.5502 C.3       11 UNK         0.1003 
     66 C          34.2269   28.5373    1.6998 C.2       11 UNK         0.5709 
     67 N          34.3924   27.2823    1.3021 N.am      11 UNK        -0.7358 
     68 O          35.1770   29.1704    2.1568 O.2       11 UNK        -0.4999 
     69 C69        31.7123   28.4028    2.3328 C.3       12 UNK        -0.0954 
     70 S70        31.7993   28.6083    4.1466 S.3       12 UNK        -0.2268 
     71 C71        32.5802   27.0601    4.6984 C.3       12 UNK         0.0203 
     72 H72        30.4645   18.4731    0.5114 H         1 UNK         0.0888 
     73 H73        30.4245   18.8589    2.2327 H         1 UNK         0.0888 
     74 H74        28.9940   18.1871    1.4452 H         1 UNK         0.0888 
     75 H75        30.2728   20.2612   -0.7746 H         1 UNK         0.3017 
     76 H76        29.9379   22.2279   -1.6157 H         1 UNK         0.0873 
     77 H77        29.4537   23.3101    1.1996 H         1 UNK         0.0745 
     78 H78        29.6943   24.2851   -0.2083 H         1 UNK         0.0745 
     79 H79        33.0397   22.5724    2.3093 H         1 UNK         0.0705 
     80 H80        31.4896   21.7789    2.2712 H         1 UNK         0.0705 
     81 H81        33.1724   25.0430    2.9628 H         1 UNK         0.1334 
     82 H82        30.1334   26.3565    5.6945 H         1 UNK         0.1417 
     83 H83        29.6282   22.6984    3.5111 H         1 UNK         0.1562 
     84 H84        28.4958   24.2910    6.4018 H         1 UNK         0.0748 
     85 H85        27.9551   23.3237    5.0523 H         1 UNK         0.0748 
     86 H86        25.9539   25.4648    2.8239 H         1 UNK         0.0940 
     87 H87        27.3252   24.3953    2.7729 H         1 UNK         0.0940 
     88 H88        28.8658   26.3152    2.4154 H         1 UNK         0.0703 
     89 H89        26.7756   25.7008    0.5215 H         1 UNK         0.3081 
     90 H90        27.6309   27.7102   -2.0080 H         1 UNK         0.0719 
     91 H91        29.2461   25.1263   -2.2849 H         1 UNK         0.0809 
     92 H92        28.6753   26.1471   -3.5977 H         1 UNK         0.0809 
     93 H93        29.8732   26.7549   -2.4702 H         1 UNK         0.0809 
     94 H94        26.7916   24.8885   -1.9867 H         1 UNK         0.2990 
     95 H95        23.4810   25.6158   -1.0810 H         1 UNK         0.0690 
     96 H96        22.7206   24.7495   -3.2795 H         1 UNK         0.0788 
     97 H97        24.3013   25.0847   -3.9893 H         1 UNK         0.0788 
     98 H98        23.2757   26.4058   -3.4472 H         1 UNK         0.0788 
     99 H99        24.5392   23.2805   -2.2891 H         1 UNK         0.2993 
    100 H100       25.1194   21.6252    0.6375 H         1 UNK         0.0949 
    101 H101       25.4255   21.4395   -2.4184 H         1 UNK         0.0767 
    102 H102       25.2640   20.0977   -1.2966 H         1 UNK         0.0767 
    103 H103       23.9222   21.2003   -1.5271 H         1 UNK         0.0767 
    104 H104       27.3486   21.4455    0.6578 H         1 UNK         0.3013 
    105 H105       28.9932   28.0199    3.8595 H         1 UNK         0.3121 
    106 H106       26.9708   30.0455    4.1422 H         1 UNK         0.0774 
    107 H107       28.3373   31.9376    3.2725 H         1 UNK         0.0815 
    108 H108       29.6065   30.8223    2.7578 H         1 UNK         0.0815 
    109 H109       28.0324   30.8010    1.9777 H         1 UNK         0.0815 
    110 H110       29.6415   31.7147    4.8747 H         1 UNK         0.2987 
    111 H111       30.6830   30.1760    7.0992 H         1 UNK         0.0949 
    112 H112       30.2097   31.9996    8.7678 H         1 UNK         0.0806 
    113 H113       29.2452   32.8602    7.5750 H         1 UNK         0.0806 
    114 H114       28.7101   31.2951    8.1860 H         1 UNK         0.0806 
    115 H115       32.6655   31.0312    7.8010 H         1 UNK         0.3010 
    116 H116       34.6961   31.8787    7.5873 H         1 UNK         0.0829 
    117 H117       33.5199   33.9045    8.4540 H         1 UNK         0.0813 
    118 H118       34.8904   34.3463    7.4619 H         1 UNK         0.0813 
    119 H119       33.2528   34.4782    6.8149 H         1 UNK         0.0813 
    120 H120       34.9449   34.2471    5.4102 H         1 UNK         0.3038 
    121 H121       36.3918   32.6406    3.5265 H         1 UNK         0.0769 
    122 H122       36.8818   34.8522    2.4782 H         1 UNK         0.0811 
    123 H123       37.1186   34.9188    4.2148 H         1 UNK         0.0811 
    124 H124       35.6705   35.6227    3.4922 H         1 UNK         0.0811 
    125 H125       33.0376   33.2999    3.6173 H         1 UNK         0.3204 
    126 H126       32.6071   33.5785    0.7518 H         1 UNK         0.0748 
    127 H127       30.2112   33.5057    1.3837 H         1 UNK         0.0771 
    128 H128       30.6310   33.0573    3.0280 H         1 UNK         0.0771 
    129 H129       31.0834   34.6398    2.4012 H         1 UNK         0.0771 
    130 H130       33.4340   30.8640    2.6202 H         1 UNK         0.2980 
    131 H131       32.5885   29.0585    0.4877 H         1 UNK         0.0545 
    132 H132       33.6308   26.7557    0.9047 H         1 UNK         0.3459 
    133 H133       35.3048   26.8625    1.3829 H         1 UNK         0.3459 
    134 H134       31.7035   27.3455    2.0679 H         1 UNK         0.0616 
    135 H135       30.7391   28.7773    2.0154 H         1 UNK         0.0616 
    136 H136       32.7256   27.1092    5.7782 H         1 UNK         0.0634 
    137 H137       33.5760   26.9872    4.2592 H         1 UNK         0.0634 
@<TRIPOS>BOND
     1    1    2 1    
     2    1   72 1    
     3    1   73 1    
     4    1   74 1    
     5    2    3 2    
     6    2    4 am   BACKBONE|DICT|INTERRES
     7    4    5 1    
     8    4   75 1    
     9    5    6 1    
    10    5   35 1    
    11    5   76 1    
    12    6    7 1    
    13    6   77 1    
    14    6   78 1    
    15    7    8 1    
    16    8    9 1    
    17    8   79 1    
    18    8   80 1    
    19    9   10 ar   
    20    9   14 ar   
    21   10   11 ar   
    22   10   81 1    
    23   11   12 ar   
    24   11   71 1    
    25   12   13 ar   
    26   12   82 1    
    27   13   14 ar   
    28   13   15 1    
    29   14   83 1    
    30   15   16 1    
    31   15   84 1    
    32   15   85 1    
    33   16   17 1    
    34   17   18 1    
    35   17   86 1    
    36   17   87 1    
    37   18   19 1    
    38   18   37 1    
    39   18   88 1    
    40   19   20 am   BACKBONE|DICT|INTERRES
    41   19   89 1    
    42   20   21 2    
    43   20   22 1    
    44   22   23 1    
    45   22   24 1    
    46   22   90 1    
    47   23   91 1    
    48   23   92 1    
    49   23   93 1    
    50   24   25 am   BACKBONE|DICT|INTERRES
    51   24   94 1    
    52   25   26 2    
    53   25   27 1    
    54   27   28 1    
    55   27   29 1    
    56   27   95 1    
    57   28   96 1    
    58   28   97 1    
    59   28   98 1    
    60   29   30 am   BACKBONE|DICT|INTERRES
    61   29   99 1    
    62   30   31 2    
    63   30   32 1    
    64   32   33 1    
    65   32   34 1    
    66   32  100 1    
    67   33  101 1    
    68   33  102 1    
    69   33  103 1    
    70   34   35 am   BACKBONE|DICT|INTERRES
    71   34  104 1    
    72   35   36 2    
    73   37   38 2    
    74   37   39 am   BACKBONE|DICT|INTERRES
    75   39   40 1    
    76   39  105 1    
    77   40   41 1    
    78   40   42 1    
    79   40  106 1    
    80   41  107 1    
    81   41  108 1    
    82   41  109 1    
    83   42   43 2    
    84   42   44 am   BACKBONE|DICT|INTERRES
    85   44   45 1    
    86   44  110 1    
    87   45   46 1    
    88   45   47 1    
    89   45  111 1    
    90   46  112 1    
    91   46  113 1    
    92   46  114 1    
    93   47   48 2    
    94   47   49 am   BACKBONE|DICT|INTERRES
    95   49   50 1    
    96   49  115 1    
    97   50   51 1    
    98   50   52 1    
    99   50  116 1    
   100   51  117 1    
   101   51  118 1    
   102   51  119 1    
   103   52   53 2    
   104   52   54 am   BACKBONE|DICT|INTERRES
   105   54   55 1    
   106   54  120 1    
   107   55   56 1    
   108   55   57 1    
   109   55  121 1    
   110   56  122 1    
   111   56  123 1    
   112   56  124 1    
   113   57   58 2    
   114   57   59 am   BACKBONE|DICT|INTERRES
   115   59   60 1    
   116   59  125 1    
   117   60   61 1    
   118   60   62 1    
   119   60  126 1    
   120   61  127 1    
   121   61  128 1    
   122   61  129 1    
   123   62   63 2    
   124   62   64 am   BACKBONE|DICT|INTERRES
   125   64   65 1    
   126   64  130 1    
   127   65   66 1    
   128   65   69 1    
   129   65  131 1    
   130   66   67 am   BACKBONE|DICT|INTERRES
   131   66   68 2    
   132   67  132 1    
   133   67  133 1    
   134   69   70 1    
   135   69  134 1    
   136   69  135 1    
   137   70   71 1    
   138   71  136 1    
   139   71  137 1    
@<TRIPOS>SUBSTRUCTURE
     1 UNK         1 GROUP             0       ****    0 ROOT    
