@<TRIPOS>MOLECULE
3R136
137   139    1
SMALL
USER_CHARGES


@<TRIPOS>ATOM
      1 CA         26.6767   26.0425    5.0330 C.3       0 UNK        -0.1979 
      2 C          27.1404   25.4741    3.7004 C.2       0 UNK         0.4864 
      3 O          27.5976   26.2321    2.8450 O.2       0 UNK        -0.5359 
      4 N          27.0451   24.1469    3.5332 N.am      1 UNK        -0.4318 
      5 CA         27.3017   23.3890    2.2996 C.3       1 UNK         0.0824 
      6 C6         28.6661   23.7315    1.6337 C.3       12 UNK        -0.0944 
      7 S7         29.3236   22.3735    0.6089 S.3       12 UNK        -0.2672 
      8 C8         30.8790   21.9596    1.4748 C.3       12 UNK         0.0333 
      9 C9         31.9233   23.0749    1.4397 C.ar      12 UNK        -0.0807 
     10 C10        32.6907   23.3466    2.5774 C.ar      12 UNK        -0.0894 
     11 C11        33.6679   24.3490    2.5695 C.ar      12 UNK        -0.0804 
     12 C12        33.8544   25.1010    1.4005 C.ar      12 UNK        -0.0824 
     13 C13        33.0955   24.8432    0.2565 C.ar      12 UNK        -0.0762 
     14 C14        32.1502   23.8146    0.2751 C.ar      12 UNK        -0.0782 
     15 C15        33.2957   25.6779   -1.0015 C.3       12 UNK         0.0230 
     16 S16        32.5529   27.3367   -0.8537 S.3       12 UNK        -0.2608 
     17 C17        30.7817   26.9336   -0.6593 C.3       12 UNK        -0.0989 
     18 CA         29.9364   28.0241    0.0429 C.3       5 UNK         0.0716 
     19 N          28.5280   27.6297    0.0486 N.am      5 UNK        -0.4135 
     20 C          27.4882   28.3710    0.4492 C.2       4 UNK         0.5031 
     21 O          27.6097   29.4863    0.9557 O.2       4 UNK        -0.5229 
     22 CA         26.0832   27.7535    0.2728 C.3       4 UNK         0.0329 
     23 CB         25.0176   28.8123   -0.0801 C.3       4 UNK        -0.2001 
     24 N          26.0485   26.6162   -0.6638 N.am      4 UNK        -0.4303 
     25 C          26.3018   26.6367   -1.9851 C.2       3 UNK         0.5044 
     26 O          26.5161   27.6699   -2.6190 O.2       3 UNK        -0.5152 
     27 CA         26.4038   25.2879   -2.7282 C.3       3 UNK         0.0319 
     28 CB         27.7988   25.1242   -3.3589 C.3       3 UNK        -0.2001 
     29 N          26.1527   24.1277   -1.8716 N.am      3 UNK        -0.4354 
     30 C          24.9461   23.6113   -1.6045 C.2       2 UNK         0.4964 
     31 O          23.8965   24.0232   -2.0986 O.2       2 UNK        -0.5047 
     32 CA         24.9045   22.4547   -0.5874 C.3       2 UNK         0.0288 
     33 CB         24.9748   21.0997   -1.3103 C.3       2 UNK        -0.2113 
     34 N          25.9642   22.5175    0.4293 N.am      2 UNK        -0.4145 
     35 C          26.1167   23.5137    1.3141 C.2       1 UNK         0.5006 
     36 O          25.3747   24.4988    1.3428 O.2       1 UNK        -0.5103 
     37 C          30.4615   28.3817    1.4501 C.2       5 UNK         0.5055 
     38 O          31.1092   29.4174    1.6014 O.2       5 UNK        -0.5220 
     39 N          30.1362   27.5581    2.4564 N.am      6 UNK        -0.4450 
     40 CA         30.5574   27.7590    3.8459 C.3       6 UNK         0.0367 
     41 CB         30.7170   26.3940    4.5376 C.3       6 UNK        -0.1929 
     42 C          29.6206   28.6995    4.6288 C.2       6 UNK         0.5070 
     43 O          29.8966   28.9864    5.7940 O.2       6 UNK        -0.5237 
     44 N          28.5366   29.1668    3.9942 N.am      7 UNK        -0.4739 
     45 CA         27.7237   30.2832    4.4738 C.3       7 UNK         0.0276 
     46 CB         26.2476   30.0496    4.1114 C.3       7 UNK        -0.1927 
     47 C          28.2399   31.6062    3.8841 C.2       7 UNK         0.5013 
     48 O          28.3349   32.5939    4.6133 O.2       7 UNK        -0.5193 
     49 N          28.5612   31.6028    2.5812 N.am      8 UNK        -0.4253 
     50 CA         29.0797   32.7494    1.8339 C.3       8 UNK         0.0242 
     51 CB         29.0286   32.4431    0.3277 C.3       8 UNK        -0.2000 
     52 C          30.4994   33.1608    2.2569 C.2       8 UNK         0.4948 
     53 O          30.7365   34.3491    2.4811 O.2       8 UNK        -0.5275 
     54 N          31.4108   32.1857    2.3537 N.am      9 UNK        -0.4246 
     55 CA         32.7868   32.3654    2.8146 C.3       9 UNK         0.0261 
     56 CB         33.7396   31.6966    1.8092 C.3       9 UNK        -0.1959 
     57 C          32.9403   31.7208    4.1958 C.2       9 UNK         0.5033 
     58 O          32.2218   30.7724    4.5135 O.2       9 UNK        -0.5390 
     59 N          33.9098   32.2009    4.9840 N.am      10 UNK        -0.4215 
     60 CA         34.2134   31.7236    6.3400 C.3       10 UNK         0.0240 
     61 CB         34.9653   32.8338    7.0996 C.3       10 UNK        -0.1982 
     62 C          34.9645   30.3723    6.3651 C.2       10 UNK         0.4970 
     63 O          35.9583   30.2351    7.0814 O.2       10 UNK        -0.4916 
     64 N          34.4881   29.4027    5.5776 N.am      11 UNK        -0.4279 
     65 CA         34.9910   28.0263    5.5312 C.3       11 UNK         0.1003 
     66 C          34.5165   27.2059    6.7623 C.2       11 UNK         0.5709 
     67 N          35.3641   26.3392    7.2997 N.am      11 UNK        -0.7358 
     68 O          33.3801   27.3274    7.2153 O.2       11 UNK        -0.4999 
     69 C69        34.6119   27.3500    4.1880 C.3       12 UNK        -0.0954 
     70 S70        35.6961   25.9354    3.8031 S.3       12 UNK        -0.2268 
     71 C71        34.5058   24.5494    3.8368 C.3       12 UNK         0.0203 
     72 H72        27.4469   26.6832    5.4606 H         1 UNK         0.0888 
     73 H73        25.7786   26.6413    4.8869 H         1 UNK         0.0888 
     74 H74        26.4500   25.2582    5.7547 H         1 UNK         0.0888 
     75 H75        26.6534   23.5984    4.2860 H         1 UNK         0.3017 
     76 H76        27.3349   22.3475    2.6240 H         1 UNK         0.0873 
     77 H77        29.4021   23.9670    2.4041 H         1 UNK         0.0745 
     78 H78        28.5941   24.6278    1.0159 H         1 UNK         0.0745 
     79 H79        30.6399   21.6877    2.5042 H         1 UNK         0.0705 
     80 H80        31.3084   21.0702    1.0122 H         1 UNK         0.0705 
     81 H81        32.5372   22.7633    3.4753 H         1 UNK         0.1334 
     82 H82        34.5894   25.8915    1.3601 H         1 UNK         0.1417 
     83 H83        31.5736   23.6035   -0.6151 H         1 UNK         0.1562 
     84 H84        32.8755   25.1738   -1.8733 H         1 UNK         0.0748 
     85 H85        34.3635   25.7857   -1.1980 H         1 UNK         0.0748 
     86 H86        30.6750   25.9976   -0.1129 H         1 UNK         0.0940 
     87 H87        30.3843   26.7441   -1.6578 H         1 UNK         0.0940 
     88 H88        30.0011   28.9334   -0.5586 H         1 UNK         0.0703 
     89 H89        28.3169   26.7198   -0.3276 H         1 UNK         0.3081 
     90 H90        25.8149   27.3421    1.2464 H         1 UNK         0.0719 
     91 H91        24.0329   28.3603   -0.1974 H         1 UNK         0.0809 
     92 H92        24.9370   29.5616    0.7082 H         1 UNK         0.0809 
     93 H93        25.2586   29.3416   -1.0022 H         1 UNK         0.0809 
     94 H94        25.8462   25.7238   -0.2243 H         1 UNK         0.2990 
     95 H95        25.6668   25.3073   -3.5340 H         1 UNK         0.0690 
     96 H96        28.5858   25.0998   -2.6044 H         1 UNK         0.0788 
     97 H97        28.0241   25.9469   -4.0392 H         1 UNK         0.0788 
     98 H98        27.8641   24.2039   -3.9397 H         1 UNK         0.0788 
     99 H99        26.9574   23.7050   -1.4314 H         1 UNK         0.2993 
    100 H100       23.9455   22.5176   -0.0683 H         1 UNK         0.0949 
    101 H101       25.9272   20.9649   -1.8249 H         1 UNK         0.0767 
    102 H102       24.8483   20.2707   -0.6136 H         1 UNK         0.0767 
    103 H103       24.1849   21.0146   -2.0583 H         1 UNK         0.0767 
    104 H104       26.6243   21.7520    0.4444 H         1 UNK         0.3013 
    105 H105       29.4609   26.8167    2.2976 H         1 UNK         0.3121 
    106 H106       31.5385   28.2372    3.8440 H         1 UNK         0.0774 
    107 H107       29.7675   25.8751    4.6481 H         1 UNK         0.0815 
    108 H108       31.1389   26.5139    5.5363 H         1 UNK         0.0815 
    109 H109       31.3898   25.7439    3.9789 H         1 UNK         0.0815 
    110 H110       28.3633   28.8498    3.0493 H         1 UNK         0.2987 
    111 H111       27.7920   30.3531    5.5618 H         1 UNK         0.0949 
    112 H112       26.0918   29.9878    3.0348 H         1 UNK         0.0806 
    113 H113       25.8734   29.1279    4.5559 H         1 UNK         0.0806 
    114 H114       25.6246   30.8643    4.4827 H         1 UNK         0.0806 
    115 H115       28.3757   30.7619    2.0385 H         1 UNK         0.3010 
    116 H116       28.4186   33.5967    2.0283 H         1 UNK         0.0829 
    117 H117       28.0085   32.2425   -0.0007 H         1 UNK         0.0813 
    118 H118       29.3985   33.2866   -0.2567 H         1 UNK         0.0813 
    119 H119       29.6365   31.5742    0.0718 H         1 UNK         0.0813 
    120 H120       31.1337   31.2187    2.1917 H         1 UNK         0.3038 
    121 H121       33.0369   33.4257    2.8885 H         1 UNK         0.0769 
    122 H122       33.5596   30.6230    1.7345 H         1 UNK         0.0811 
    123 H123       34.7812   31.8326    2.1026 H         1 UNK         0.0811 
    124 H124       33.6249   32.1229    0.8125 H         1 UNK         0.0811 
    125 H125       34.4934   32.9468    4.6324 H         1 UNK         0.3204 
    126 H126       33.2672   31.5575    6.8599 H         1 UNK         0.0748 
    127 H127       35.9351   33.0463    6.6478 H         1 UNK         0.0771 
    128 H128       34.3921   33.7610    7.1179 H         1 UNK         0.0771 
    129 H129       35.1435   32.5488    8.1375 H         1 UNK         0.0771 
    130 H130       33.6251   29.5952    5.0767 H         1 UNK         0.2980 
    131 H131       36.0805   28.0926    5.5723 H         1 UNK         0.0545 
    132 H132       35.0694   25.7922    8.0930 H         1 UNK         0.3459 
    133 H133       36.2898   26.2160    6.9202 H         1 UNK         0.3459 
    134 H134       33.5656   27.0439    4.1780 H         1 UNK         0.0616 
    135 H135       34.7216   28.0597    3.3662 H         1 UNK         0.0616 
    136 H136       33.8456   24.6693    4.6973 H         1 UNK         0.0634 
    137 H137       35.0729   23.6345    4.0130 H         1 UNK         0.0634 
@<TRIPOS>BOND
     1    1    2 1    
     2    1   72 1    
     3    1   73 1    
     4    1   74 1    
     5    2    3 2    
     6    2    4 am   BACKBONE|DICT|INTERRES
     7    4    5 1    
     8    4   75 1    
     9    5    6 1    
    10    5   35 1    
    11    5   76 1    
    12    6    7 1    
    13    6   77 1    
    14    6   78 1    
    15    7    8 1    
    16    8    9 1    
    17    8   79 1    
    18    8   80 1    
    19    9   10 ar   
    20    9   14 ar   
    21   10   11 ar   
    22   10   81 1    
    23   11   12 ar   
    24   11   71 1    
    25   12   13 ar   
    26   12   82 1    
    27   13   14 ar   
    28   13   15 1    
    29   14   83 1    
    30   15   16 1    
    31   15   84 1    
    32   15   85 1    
    33   16   17 1    
    34   17   18 1    
    35   17   86 1    
    36   17   87 1    
    37   18   19 1    
    38   18   37 1    
    39   18   88 1    
    40   19   20 am   BACKBONE|DICT|INTERRES
    41   19   89 1    
    42   20   21 2    
    43   20   22 1    
    44   22   23 1    
    45   22   24 1    
    46   22   90 1    
    47   23   91 1    
    48   23   92 1    
    49   23   93 1    
    50   24   25 am   BACKBONE|DICT|INTERRES
    51   24   94 1    
    52   25   26 2    
    53   25   27 1    
    54   27   28 1    
    55   27   29 1    
    56   27   95 1    
    57   28   96 1    
    58   28   97 1    
    59   28   98 1    
    60   29   30 am   BACKBONE|DICT|INTERRES
    61   29   99 1    
    62   30   31 2    
    63   30   32 1    
    64   32   33 1    
    65   32   34 1    
    66   32  100 1    
    67   33  101 1    
    68   33  102 1    
    69   33  103 1    
    70   34   35 am   BACKBONE|DICT|INTERRES
    71   34  104 1    
    72   35   36 2    
    73   37   38 2    
    74   37   39 am   BACKBONE|DICT|INTERRES
    75   39   40 1    
    76   39  105 1    
    77   40   41 1    
    78   40   42 1    
    79   40  106 1    
    80   41  107 1    
    81   41  108 1    
    82   41  109 1    
    83   42   43 2    
    84   42   44 am   BACKBONE|DICT|INTERRES
    85   44   45 1    
    86   44  110 1    
    87   45   46 1    
    88   45   47 1    
    89   45  111 1    
    90   46  112 1    
    91   46  113 1    
    92   46  114 1    
    93   47   48 2    
    94   47   49 am   BACKBONE|DICT|INTERRES
    95   49   50 1    
    96   49  115 1    
    97   50   51 1    
    98   50   52 1    
    99   50  116 1    
   100   51  117 1    
   101   51  118 1    
   102   51  119 1    
   103   52   53 2    
   104   52   54 am   BACKBONE|DICT|INTERRES
   105   54   55 1    
   106   54  120 1    
   107   55   56 1    
   108   55   57 1    
   109   55  121 1    
   110   56  122 1    
   111   56  123 1    
   112   56  124 1    
   113   57   58 2    
   114   57   59 am   BACKBONE|DICT|INTERRES
   115   59   60 1    
   116   59  125 1    
   117   60   61 1    
   118   60   62 1    
   119   60  126 1    
   120   61  127 1    
   121   61  128 1    
   122   61  129 1    
   123   62   63 2    
   124   62   64 am   BACKBONE|DICT|INTERRES
   125   64   65 1    
   126   64  130 1    
   127   65   66 1    
   128   65   69 1    
   129   65  131 1    
   130   66   67 am   BACKBONE|DICT|INTERRES
   131   66   68 2    
   132   67  132 1    
   133   67  133 1    
   134   69   70 1    
   135   69  134 1    
   136   69  135 1    
   137   70   71 1    
   138   71  136 1    
   139   71  137 1    
@<TRIPOS>SUBSTRUCTURE
     1 UNK         1 GROUP             0       ****    0 ROOT    
