@<TRIPOS>MOLECULE
3R136
137   139    1
SMALL
USER_CHARGES


@<TRIPOS>ATOM
      1 CA         27.0979   21.9603   -0.8522 C.3       0 UNK        -0.1979 
      2 C          27.2708   22.6110    0.5121 C.2       0 UNK         0.4864 
      3 O          26.4870   22.3353    1.4220 O.2       0 UNK        -0.5359 
      4 N          28.2786   23.4846    0.6471 N.am      1 UNK        -0.4318 
      5 CA         28.6440   24.2573    1.8424 C.3       1 UNK         0.0824 
      6 C6         29.0437   23.3936    3.0732 C.3       12 UNK        -0.0944 
      7 S7         30.2931   22.1241    2.6590 S.3       12 UNK        -0.2672 
      8 C8         31.8351   22.8424    3.3108 C.3       12 UNK         0.0333 
      9 C9         32.1762   24.1932    2.6934 C.ar      12 UNK        -0.0807 
     10 C10        32.4031   25.2945    3.5224 C.ar      12 UNK        -0.0894 
     11 C11        32.7361   26.5374    2.9795 C.ar      12 UNK        -0.0804 
     12 C12        32.8143   26.6851    1.5919 C.ar      12 UNK        -0.0824 
     13 C13        32.5778   25.5942    0.7487 C.ar      12 UNK        -0.0762 
     14 C14        32.2811   24.3458    1.3059 C.ar      12 UNK        -0.0782 
     15 C15        32.6396   25.7648   -0.7640 C.3       12 UNK         0.0230 
     16 S16        30.9819   25.7449   -1.5243 S.3       12 UNK        -0.2608 
     17 C17        30.1801   27.1643   -0.7048 C.3       12 UNK        -0.0989 
     18 CA         29.2356   27.9756   -1.6268 C.3       5 UNK         0.0716 
     19 N          28.2438   27.1444   -2.3154 N.am      5 UNK        -0.4135 
     20 C          27.4980   27.5349   -3.3565 C.2       4 UNK         0.5031 
     21 O          27.6441   28.6093   -3.9407 O.2       4 UNK        -0.5229 
     22 CA         26.3788   26.5798   -3.8130 C.3       4 UNK         0.0329 
     23 CB         26.9483   25.2634   -4.3825 C.3       4 UNK        -0.2001 
     24 N          25.3535   26.3343   -2.7853 N.am      4 UNK        -0.4303 
     25 C          25.5041   25.7107   -1.6096 C.2       3 UNK         0.5044 
     26 O          26.5711   25.2271   -1.2250 O.2       3 UNK        -0.5152 
     27 CA         24.2588   25.6025   -0.7190 C.3       3 UNK         0.0319 
     28 CB         23.3532   24.4562   -1.1977 C.3       3 UNK        -0.2001 
     29 N          24.6915   25.3184    0.6467 N.am      3 UNK        -0.4354 
     30 C          24.5126   26.1067    1.7126 C.2       2 UNK         0.4964 
     31 O          23.8129   27.1195    1.7104 O.2       2 UNK        -0.5047 
     32 CA         25.2600   25.7112    3.0014 C.3       2 UNK         0.0288 
     33 CB         24.3208   24.9685    3.9649 C.3       2 UNK        -0.2113 
     34 N          26.4428   24.8815    2.7495 N.am      2 UNK        -0.4145 
     35 C          27.5676   25.3140    2.1632 C.2       1 UNK         0.5006 
     36 O          27.7408   26.4837    1.8199 O.2       1 UNK        -0.5103 
     37 C          28.5284   29.0792   -0.8150 C.2       5 UNK         0.5055 
     38 O          28.9453   30.2368   -0.8705 O.2       5 UNK        -0.5220 
     39 N          27.4636   28.6825   -0.0977 N.am      6 UNK        -0.4450 
     40 CA         26.6099   29.4932    0.7755 C.3       6 UNK         0.0367 
     41 CB         25.7953   30.5119   -0.0491 C.3       6 UNK        -0.1929 
     42 C          27.3966   30.1318    1.9352 C.2       6 UNK         0.5070 
     43 O          27.2568   31.3297    2.1906 O.2       6 UNK        -0.5237 
     44 N          28.2229   29.3235    2.6102 N.am      7 UNK        -0.4739 
     45 CA         29.0977   29.7552    3.6974 C.3       7 UNK         0.0276 
     46 CB         30.4048   30.3178    3.1088 C.3       7 UNK        -0.1927 
     47 C          29.3868   28.5831    4.6407 C.2       7 UNK         0.5013 
     48 O          29.4300   27.4359    4.1952 O.2       7 UNK        -0.5193 
     49 N          29.6200   28.9023    5.9189 N.am      8 UNK        -0.4253 
     50 CA         30.0076   27.9491    6.9658 C.3       8 UNK         0.0242 
     51 CB         28.8691   27.8542    7.9977 C.3       8 UNK        -0.2000 
     52 C          31.3370   28.3301    7.6462 C.2       8 UNK         0.4948 
     53 O          31.7868   27.5984    8.5290 O.2       8 UNK        -0.5275 
     54 N          31.9424   29.4538    7.2439 N.am      9 UNK        -0.4246 
     55 CA         33.2008   29.9939    7.7482 C.3       9 UNK         0.0261 
     56 CB         32.9722   30.7032    9.0969 C.3       9 UNK        -0.1959 
     57 C          33.7471   30.9657    6.6950 C.2       9 UNK         0.5033 
     58 O          32.9917   31.3785    5.8094 O.2       9 UNK        -0.5390 
     59 N          35.0405   31.3066    6.8121 N.am      10 UNK        -0.4215 
     60 CA         35.8129   32.1667    5.8980 C.3       10 UNK         0.0240 
     61 CB         35.3308   33.6311    5.9849 C.3       10 UNK        -0.1982 
     62 C          35.8361   31.6238    4.4530 C.2       10 UNK         0.4970 
     63 O          35.6901   32.3858    3.4951 O.2       10 UNK        -0.4916 
     64 N          35.9757   30.2984    4.3433 N.am      11 UNK        -0.4279 
     65 CA         35.8644   29.5169    3.1070 C.3       11 UNK         0.1003 
     66 C          36.9968   29.8146    2.0874 C.2       11 UNK         0.5709 
     67 N          36.7059   29.7378    0.7958 N.am      11 UNK        -0.7358 
     68 O          38.1422   30.0715    2.4553 O.2       11 UNK        -0.4999 
     69 C69        35.7735   27.9957    3.4095 C.3       12 UNK        -0.0954 
     70 S70        34.5989   27.5787    4.7473 S.3       12 UNK        -0.2268 
     71 C71        32.9964   27.7169    3.9019 C.3       12 UNK         0.0203 
     72 H72        26.1005   22.1648   -1.2399 H         1 UNK         0.0888 
     73 H73        27.8218   22.3353   -1.5757 H         1 UNK         0.0888 
     74 H74        27.2212   20.8808   -0.7724 H         1 UNK         0.0888 
     75 H75        28.8407   23.6910   -0.1663 H         1 UNK         0.3017 
     76 H76        29.5308   24.8237    1.5581 H         1 UNK         0.0873 
     77 H77        29.4250   24.0306    3.8738 H         1 UNK         0.0745 
     78 H78        28.1790   22.8732    3.4870 H         1 UNK         0.0745 
     79 H79        32.6547   22.1502    3.1145 H         1 UNK         0.0705 
     80 H80        31.7510   22.9186    4.3960 H         1 UNK         0.0705 
     81 H81        32.3324   25.1876    4.5963 H         1 UNK         0.1334 
     82 H82        33.0566   27.6502    1.1692 H         1 UNK         0.1417 
     83 H83        32.1038   23.4980    0.6580 H         1 UNK         0.1562 
     84 H84        33.2357   24.9591   -1.1949 H         1 UNK         0.0748 
     85 H85        33.1461   26.6938   -1.0307 H         1 UNK         0.0748 
     86 H86        30.9509   27.8287   -0.3106 H         1 UNK         0.0940 
     87 H87        29.6493   26.7791    0.1645 H         1 UNK         0.0940 
     88 H88        29.8474   28.4622   -2.3897 H         1 UNK         0.0703 
     89 H89        27.9964   26.2608   -1.8781 H         1 UNK         0.3081 
     90 H90        25.8581   27.0810   -4.6308 H         1 UNK         0.0719 
     91 H91        27.4906   24.6847   -3.6343 H         1 UNK         0.0809 
     92 H92        26.1551   24.6308   -4.7808 H         1 UNK         0.0809 
     93 H93        27.6430   25.4636   -5.1991 H         1 UNK         0.0809 
     94 H94        24.4410   26.7133   -2.9996 H         1 UNK         0.2990 
     95 H95        23.7109   26.5459   -0.7661 H         1 UNK         0.0690 
     96 H96        23.8757   23.4987   -1.1930 H         1 UNK         0.0788 
     97 H97        22.9988   24.6306   -2.2144 H         1 UNK         0.0788 
     98 H98        22.4732   24.3583   -0.5617 H         1 UNK         0.0788 
     99 H99        25.3416   24.5487    0.7352 H         1 UNK         0.2993 
    100 H100       25.5908   26.6345    3.4826 H         1 UNK         0.0949 
    101 H101       23.9720   24.0257    3.5412 H         1 UNK         0.0767 
    102 H102       24.8162   24.7495    4.9111 H         1 UNK         0.0767 
    103 H103       23.4399   25.5704    4.1932 H         1 UNK         0.0767 
    104 H104       26.3420   23.8809    2.8779 H         1 UNK         0.3013 
    105 H105       27.2889   27.6867   -0.0456 H         1 UNK         0.3121 
    106 H106       25.9021   28.8047    1.2371 H         1 UNK         0.0774 
    107 H107       25.2291   30.0189   -0.8392 H         1 UNK         0.0815 
    108 H108       25.0790   31.0395    0.5817 H         1 UNK         0.0815 
    109 H109       26.4355   31.2631   -0.5127 H         1 UNK         0.0815 
    110 H110       28.2468   28.3274    2.3958 H         1 UNK         0.2987 
    111 H111       28.5956   30.5366    4.2726 H         1 UNK         0.0949 
    112 H112       30.8980   29.5871    2.4668 H         1 UNK         0.0806 
    113 H113       30.2179   31.2100    2.5109 H         1 UNK         0.0806 
    114 H114       31.1086   30.5977    3.8935 H         1 UNK         0.0806 
    115 H115       29.5337   29.8681    6.2043 H         1 UNK         0.3010 
    116 H116       30.1614   26.9565    6.5366 H         1 UNK         0.0829 
    117 H117       29.1042   27.1288    8.7777 H         1 UNK         0.0813 
    118 H118       28.6863   28.8120    8.4864 H         1 UNK         0.0813 
    119 H119       27.9384   27.5326    7.5299 H         1 UNK         0.0813 
    120 H120       31.5775   29.9805    6.4602 H         1 UNK         0.3038 
    121 H121       33.9154   29.1771    7.8708 H         1 UNK         0.0769 
    122 H122       33.9010   31.1203    9.4876 H         1 UNK         0.0811 
    123 H123       32.5893   30.0142    9.8499 H         1 UNK         0.0811 
    124 H124       32.2597   31.5237    9.0026 H         1 UNK         0.0811 
    125 H125       35.5650   30.9128    7.5819 H         1 UNK         0.3204 
    126 H126       36.8465   32.1407    6.2466 H         1 UNK         0.0748 
    127 H127       35.9748   34.2904    5.4016 H         1 UNK         0.0771 
    128 H128       34.3159   33.7473    5.6029 H         1 UNK         0.0771 
    129 H129       35.3450   33.9928    7.0130 H         1 UNK         0.0771 
    130 H130       36.0987   29.7555    5.1839 H         1 UNK         0.2980 
    131 H131       34.9246   29.8191    2.6414 H         1 UNK         0.0545 
    132 H132       37.4336   29.9128    0.1206 H         1 UNK         0.3459 
    133 H133       35.7744   29.5180    0.4806 H         1 UNK         0.3459 
    134 H134       36.7498   27.6136    3.7136 H         1 UNK         0.0616 
    135 H135       35.5011   27.4405    2.5106 H         1 UNK         0.0616 
    136 H136       32.9470   28.6621    3.3616 H         1 UNK         0.0634 
    137 H137       32.2144   27.7558    4.6592 H         1 UNK         0.0634 
@<TRIPOS>BOND
     1    1    2 1    
     2    1   72 1    
     3    1   73 1    
     4    1   74 1    
     5    2    3 2    
     6    2    4 am   BACKBONE|DICT|INTERRES
     7    4    5 1    
     8    4   75 1    
     9    5    6 1    
    10    5   35 1    
    11    5   76 1    
    12    6    7 1    
    13    6   77 1    
    14    6   78 1    
    15    7    8 1    
    16    8    9 1    
    17    8   79 1    
    18    8   80 1    
    19    9   10 ar   
    20    9   14 ar   
    21   10   11 ar   
    22   10   81 1    
    23   11   12 ar   
    24   11   71 1    
    25   12   13 ar   
    26   12   82 1    
    27   13   14 ar   
    28   13   15 1    
    29   14   83 1    
    30   15   16 1    
    31   15   84 1    
    32   15   85 1    
    33   16   17 1    
    34   17   18 1    
    35   17   86 1    
    36   17   87 1    
    37   18   19 1    
    38   18   37 1    
    39   18   88 1    
    40   19   20 am   BACKBONE|DICT|INTERRES
    41   19   89 1    
    42   20   21 2    
    43   20   22 1    
    44   22   23 1    
    45   22   24 1    
    46   22   90 1    
    47   23   91 1    
    48   23   92 1    
    49   23   93 1    
    50   24   25 am   BACKBONE|DICT|INTERRES
    51   24   94 1    
    52   25   26 2    
    53   25   27 1    
    54   27   28 1    
    55   27   29 1    
    56   27   95 1    
    57   28   96 1    
    58   28   97 1    
    59   28   98 1    
    60   29   30 am   BACKBONE|DICT|INTERRES
    61   29   99 1    
    62   30   31 2    
    63   30   32 1    
    64   32   33 1    
    65   32   34 1    
    66   32  100 1    
    67   33  101 1    
    68   33  102 1    
    69   33  103 1    
    70   34   35 am   BACKBONE|DICT|INTERRES
    71   34  104 1    
    72   35   36 2    
    73   37   38 2    
    74   37   39 am   BACKBONE|DICT|INTERRES
    75   39   40 1    
    76   39  105 1    
    77   40   41 1    
    78   40   42 1    
    79   40  106 1    
    80   41  107 1    
    81   41  108 1    
    82   41  109 1    
    83   42   43 2    
    84   42   44 am   BACKBONE|DICT|INTERRES
    85   44   45 1    
    86   44  110 1    
    87   45   46 1    
    88   45   47 1    
    89   45  111 1    
    90   46  112 1    
    91   46  113 1    
    92   46  114 1    
    93   47   48 2    
    94   47   49 am   BACKBONE|DICT|INTERRES
    95   49   50 1    
    96   49  115 1    
    97   50   51 1    
    98   50   52 1    
    99   50  116 1    
   100   51  117 1    
   101   51  118 1    
   102   51  119 1    
   103   52   53 2    
   104   52   54 am   BACKBONE|DICT|INTERRES
   105   54   55 1    
   106   54  120 1    
   107   55   56 1    
   108   55   57 1    
   109   55  121 1    
   110   56  122 1    
   111   56  123 1    
   112   56  124 1    
   113   57   58 2    
   114   57   59 am   BACKBONE|DICT|INTERRES
   115   59   60 1    
   116   59  125 1    
   117   60   61 1    
   118   60   62 1    
   119   60  126 1    
   120   61  127 1    
   121   61  128 1    
   122   61  129 1    
   123   62   63 2    
   124   62   64 am   BACKBONE|DICT|INTERRES
   125   64   65 1    
   126   64  130 1    
   127   65   66 1    
   128   65   69 1    
   129   65  131 1    
   130   66   67 am   BACKBONE|DICT|INTERRES
   131   66   68 2    
   132   67  132 1    
   133   67  133 1    
   134   69   70 1    
   135   69  134 1    
   136   69  135 1    
   137   70   71 1    
   138   71  136 1    
   139   71  137 1    
@<TRIPOS>SUBSTRUCTURE
     1 UNK         1 GROUP             0       ****    0 ROOT    
