@<TRIPOS>MOLECULE
3R136
137   139    1
SMALL
USER_CHARGES


@<TRIPOS>ATOM
      1 CA         27.4025   20.3164    0.7334 C.3       0 UNK        -0.1979 
      2 C          27.5505   21.7097    0.1409 C.2       0 UNK         0.4864 
      3 O          27.3153   22.6903    0.8453 O.2       0 UNK        -0.5359 
      4 N          27.9425   21.7920   -1.1386 N.am      1 UNK        -0.4318 
      5 CA         28.1472   23.0189   -1.9259 C.3       1 UNK         0.0824 
      6 C6         29.2263   23.9669   -1.3237 C.3       12 UNK        -0.0944 
      7 S7         30.8629   23.1630   -1.3119 S.3       12 UNK        -0.2672 
      8 C8         31.8649   24.3944   -0.4126 C.3       12 UNK         0.0333 
      9 C9         31.9943   24.1919    1.0994 C.ar      12 UNK        -0.0807 
     10 C10        32.6938   25.1639    1.8213 C.ar      12 UNK        -0.0894 
     11 C11        32.8895   25.0375    3.1974 C.ar      12 UNK        -0.0804 
     12 C12        32.3684   23.9259    3.8642 C.ar      12 UNK        -0.0824 
     13 C13        31.6685   22.9384    3.1633 C.ar      12 UNK        -0.0762 
     14 C14        31.4881   23.0735    1.7812 C.ar      12 UNK        -0.0782 
     15 C15        31.1229   21.7206    3.9046 C.3       12 UNK         0.0230 
     16 S16        29.3068   21.7448    4.0954 S.3       12 UNK        -0.2608 
     17 C17        29.0229   23.3833    4.8486 C.3       12 UNK        -0.0989 
     18 CA         28.6351   24.4073    3.7520 C.3       5 UNK         0.0716 
     19 N          27.2992   24.1798    3.2003 N.am      5 UNK        -0.4135 
     20 C          26.1186   24.5777    3.6878 C.2       4 UNK         0.5031 
     21 O          25.9584   25.1437    4.7714 O.2       4 UNK        -0.5229 
     22 CA         24.9074   24.3126    2.7740 C.3       4 UNK         0.0329 
     23 CB         23.6394   24.0046    3.5915 C.3       4 UNK        -0.2001 
     24 N          24.6080   25.3982    1.8285 N.am      4 UNK        -0.4303 
     25 C          25.4560   26.0304    1.0021 C.2       3 UNK         0.5044 
     26 O          26.6834   25.9083    1.0011 O.2       3 UNK        -0.5152 
     27 CA         24.8217   26.9370   -0.0559 C.3       3 UNK         0.0319 
     28 CB         25.0476   28.4239    0.2597 C.3       3 UNK        -0.2001 
     29 N          25.4854   26.5959   -1.3065 N.am      3 UNK        -0.4354 
     30 C          24.8820   26.2489   -2.4461 C.2       2 UNK         0.4964 
     31 O          23.6749   26.3751   -2.6559 O.2       2 UNK        -0.5047 
     32 CA         25.7791   25.6275   -3.5318 C.3       2 UNK         0.0288 
     33 CB         26.3021   26.7151   -4.4847 C.3       2 UNK        -0.2113 
     34 N          26.9152   24.8581   -3.0027 N.am      2 UNK        -0.4145 
     35 C          26.8170   23.7290   -2.2810 C.2       1 UNK         0.5006 
     36 O          25.7343   23.2231   -1.9714 O.2       1 UNK        -0.5103 
     37 C          28.8946   25.8799    4.1259 C.2       5 UNK         0.5055 
     38 O          29.3378   26.1762    5.2377 O.2       5 UNK        -0.5220 
     39 N          28.6100   26.7702    3.1701 N.am      6 UNK        -0.4450 
     40 CA         28.9637   28.1829    3.2004 C.3       6 UNK         0.0367 
     41 CB         27.6797   29.0247    3.2612 C.3       6 UNK        -0.1929 
     42 C          29.7829   28.5046    1.9444 C.2       6 UNK         0.5070 
     43 O          29.6878   27.7980    0.9377 O.2       6 UNK        -0.5237 
     44 N          30.5663   29.5800    2.0279 N.am      7 UNK        -0.4739 
     45 CA         31.4615   30.0822    0.9906 C.3       7 UNK         0.0276 
     46 CB         32.7268   29.2012    0.9143 C.3       7 UNK        -0.1927 
     47 C          31.7884   31.5464    1.3157 C.2       7 UNK         0.5013 
     48 O          31.1764   32.1202    2.2238 O.2       7 UNK        -0.5193 
     49 N          32.7579   32.1233    0.5912 N.am      8 UNK        -0.4253 
     50 CA         33.2945   33.4691    0.8181 C.3       8 UNK         0.0242 
     51 CB         34.4345   33.7398   -0.1770 C.3       8 UNK        -0.2000 
     52 C          33.7844   33.6519    2.2654 C.2       8 UNK         0.4948 
     53 O          34.5009   32.7873    2.7764 O.2       8 UNK        -0.5275 
     54 N          33.3366   34.7430    2.9030 N.am      9 UNK        -0.4246 
     55 CA         33.5407   35.0821    4.3185 C.3       9 UNK         0.0261 
     56 CB         35.0237   35.4174    4.5894 C.3       9 UNK        -0.1959 
     57 C          32.9855   34.0224    5.2967 C.2       9 UNK         0.5033 
     58 O          33.5258   33.8714    6.3938 O.2       9 UNK        -0.5390 
     59 N          31.9377   33.2902    4.8799 N.am      10 UNK        -0.4215 
     60 CA         31.2858   32.1854    5.5979 C.3       10 UNK         0.0240 
     61 CB         30.5027   32.7159    6.8181 C.3       10 UNK        -0.1982 
     62 C          32.2662   31.0489    5.9542 C.2       10 UNK         0.4970 
     63 O          32.2227   30.5304    7.0708 O.2       10 UNK        -0.4916 
     64 N          33.1513   30.7211    5.0017 N.am      11 UNK        -0.4279 
     65 CA         34.2906   29.7961    5.1381 C.3       11 UNK         0.1003 
     66 C          35.4717   30.3509    5.9950 C.2       11 UNK         0.5709 
     67 N          35.4497   31.5909    6.4707 N.am      11 UNK        -0.7358 
     68 O          36.4580   29.6492    6.2077 O.2       11 UNK        -0.4999 
     69 C69        33.8923   28.3505    5.5666 C.3       12 UNK        -0.0954 
     70 S70        32.7243   27.5254    4.4302 S.3       12 UNK        -0.2268 
     71 C71        33.7101   26.0725    3.9526 C.3       12 UNK         0.0203 
     72 H72        27.6360   19.5364    0.0091 H         1 UNK         0.0888 
     73 H73        28.0723   20.2007    1.5851 H         1 UNK         0.0888 
     74 H74        26.3809   20.1644    1.0803 H         1 UNK         0.0888 
     75 H75        28.0916   20.9355   -1.6525 H         1 UNK         0.3017 
     76 H76        28.5268   22.6720   -2.8885 H         1 UNK         0.0873 
     77 H77        29.3287   24.8814   -1.9090 H         1 UNK         0.0745 
     78 H78        28.9657   24.2846   -0.3126 H         1 UNK         0.0745 
     79 H79        32.8681   24.3762   -0.8406 H         1 UNK         0.0705 
     80 H80        31.4679   25.3918   -0.6099 H         1 UNK         0.0705 
     81 H81        33.1086   26.0183    1.3055 H         1 UNK         0.1334 
     82 H82        32.5197   23.8245    4.9303 H         1 UNK         0.1417 
     83 H83        30.9477   22.3018    1.2517 H         1 UNK         0.1562 
     84 H84        31.5779   21.6377    4.8929 H         1 UNK         0.0748 
     85 H85        31.4065   20.8153    3.3659 H         1 UNK         0.0748 
     86 H86        29.9260   23.6811    5.3835 H         1 UNK         0.0940 
     87 H87        28.2371   23.3092    5.6019 H         1 UNK         0.0940 
     88 H88        29.2966   24.2496    2.9016 H         1 UNK         0.0703 
     89 H89        27.2952   23.7317    2.2816 H         1 UNK         0.3081 
     90 H90        25.1297   23.4252    2.1786 H         1 UNK         0.0719 
     91 H91        23.3000   24.8752    4.1544 H         1 UNK         0.0809 
     92 H92        22.8205   23.6783    2.9501 H         1 UNK         0.0809 
     93 H93        23.8234   23.2042    4.3097 H         1 UNK         0.0809 
     94 H94        23.6275   25.6195    1.7354 H         1 UNK         0.2990 
     95 H95        23.7499   26.7351   -0.1140 H         1 UNK         0.0690 
     96 H96        24.5581   29.0592   -0.4786 H         1 UNK         0.0788 
     97 H97        26.1083   28.6771    0.2623 H         1 UNK         0.0788 
     98 H98        24.6400   28.6849    1.2371 H         1 UNK         0.0788 
     99 H99        26.4726   26.3983   -1.2041 H         1 UNK         0.2993 
    100 H100       25.1557   24.9398   -4.1078 H         1 UNK         0.0949 
    101 H101       25.4780   27.2881   -4.9123 H         1 UNK         0.0767 
    102 H102       26.9578   27.4204   -3.9723 H         1 UNK         0.0767 
    103 H103       26.8575   26.2814   -5.3167 H         1 UNK         0.0767 
    104 H104       27.8342   25.1969   -3.2479 H         1 UNK         0.3013 
    105 H105       28.2443   26.4384    2.2804 H         1 UNK         0.3121 
    106 H106       29.5805   28.4050    4.0743 H         1 UNK         0.0774 
    107 H107       27.1076   28.8042    4.1626 H         1 UNK         0.0815 
    108 H108       27.9068   30.0914    3.2720 H         1 UNK         0.0815 
    109 H109       27.0357   28.8339    2.4042 H         1 UNK         0.0815 
    110 H110       30.5247   30.1726    2.8472 H         1 UNK         0.2987 
    111 H111       30.9405   30.0621    0.0311 H         1 UNK         0.0949 
    112 H112       33.3920   29.5151    0.1099 H         1 UNK         0.0806 
    113 H113       33.2951   29.2323    1.8448 H         1 UNK         0.0806 
    114 H114       32.4692   28.1617    0.7164 H         1 UNK         0.0806 
    115 H115       33.2185   31.5736   -0.1187 H         1 UNK         0.3010 
    116 H116       32.4875   34.1781    0.6216 H         1 UNK         0.0829 
    117 H117       34.0899   33.6649   -1.2086 H         1 UNK         0.0813 
    118 H118       34.8383   34.7444   -0.0439 H         1 UNK         0.0813 
    119 H119       35.2593   33.0379   -0.0451 H         1 UNK         0.0813 
    120 H120       32.7442   35.3820    2.3895 H         1 UNK         0.3038 
    121 H121       32.9606   35.9877    4.5017 H         1 UNK         0.0769 
    122 H122       35.6605   34.5366    4.4991 H         1 UNK         0.0811 
    123 H123       35.1590   35.8125    5.5970 H         1 UNK         0.0811 
    124 H124       35.3940   36.1720    3.8957 H         1 UNK         0.0811 
    125 H125       31.6055   33.4323    3.9323 H         1 UNK         0.3204 
    126 H126       30.5606   31.7533    4.9070 H         1 UNK         0.0748 
    127 H127       29.8013   33.4984    6.5290 H         1 UNK         0.0771 
    128 H128       29.9229   31.9200    7.2872 H         1 UNK         0.0771 
    129 H129       31.1676   33.1259    7.5791 H         1 UNK         0.0771 
    130 H130       33.1449   31.2576    4.1449 H         1 UNK         0.2980 
    131 H131       34.7051   29.7244    4.1320 H         1 UNK         0.0545 
    132 H132       36.2368   31.9171    7.0076 H         1 UNK         0.3459 
    133 H133       34.6561   32.2051    6.3277 H         1 UNK         0.3459 
    134 H134       34.7862   27.7302    5.6449 H         1 UNK         0.0616 
    135 H135       33.4553   28.3448    6.5653 H         1 UNK         0.0616 
    136 H136       34.1376   25.6168    4.8472 H         1 UNK         0.0634 
    137 H137       34.5528   26.3986    3.3410 H         1 UNK         0.0634 
@<TRIPOS>BOND
     1    1    2 1    
     2    1   72 1    
     3    1   73 1    
     4    1   74 1    
     5    2    3 2    
     6    2    4 am   BACKBONE|DICT|INTERRES
     7    4    5 1    
     8    4   75 1    
     9    5    6 1    
    10    5   35 1    
    11    5   76 1    
    12    6    7 1    
    13    6   77 1    
    14    6   78 1    
    15    7    8 1    
    16    8    9 1    
    17    8   79 1    
    18    8   80 1    
    19    9   10 ar   
    20    9   14 ar   
    21   10   11 ar   
    22   10   81 1    
    23   11   12 ar   
    24   11   71 1    
    25   12   13 ar   
    26   12   82 1    
    27   13   14 ar   
    28   13   15 1    
    29   14   83 1    
    30   15   16 1    
    31   15   84 1    
    32   15   85 1    
    33   16   17 1    
    34   17   18 1    
    35   17   86 1    
    36   17   87 1    
    37   18   19 1    
    38   18   37 1    
    39   18   88 1    
    40   19   20 am   BACKBONE|DICT|INTERRES
    41   19   89 1    
    42   20   21 2    
    43   20   22 1    
    44   22   23 1    
    45   22   24 1    
    46   22   90 1    
    47   23   91 1    
    48   23   92 1    
    49   23   93 1    
    50   24   25 am   BACKBONE|DICT|INTERRES
    51   24   94 1    
    52   25   26 2    
    53   25   27 1    
    54   27   28 1    
    55   27   29 1    
    56   27   95 1    
    57   28   96 1    
    58   28   97 1    
    59   28   98 1    
    60   29   30 am   BACKBONE|DICT|INTERRES
    61   29   99 1    
    62   30   31 2    
    63   30   32 1    
    64   32   33 1    
    65   32   34 1    
    66   32  100 1    
    67   33  101 1    
    68   33  102 1    
    69   33  103 1    
    70   34   35 am   BACKBONE|DICT|INTERRES
    71   34  104 1    
    72   35   36 2    
    73   37   38 2    
    74   37   39 am   BACKBONE|DICT|INTERRES
    75   39   40 1    
    76   39  105 1    
    77   40   41 1    
    78   40   42 1    
    79   40  106 1    
    80   41  107 1    
    81   41  108 1    
    82   41  109 1    
    83   42   43 2    
    84   42   44 am   BACKBONE|DICT|INTERRES
    85   44   45 1    
    86   44  110 1    
    87   45   46 1    
    88   45   47 1    
    89   45  111 1    
    90   46  112 1    
    91   46  113 1    
    92   46  114 1    
    93   47   48 2    
    94   47   49 am   BACKBONE|DICT|INTERRES
    95   49   50 1    
    96   49  115 1    
    97   50   51 1    
    98   50   52 1    
    99   50  116 1    
   100   51  117 1    
   101   51  118 1    
   102   51  119 1    
   103   52   53 2    
   104   52   54 am   BACKBONE|DICT|INTERRES
   105   54   55 1    
   106   54  120 1    
   107   55   56 1    
   108   55   57 1    
   109   55  121 1    
   110   56  122 1    
   111   56  123 1    
   112   56  124 1    
   113   57   58 2    
   114   57   59 am   BACKBONE|DICT|INTERRES
   115   59   60 1    
   116   59  125 1    
   117   60   61 1    
   118   60   62 1    
   119   60  126 1    
   120   61  127 1    
   121   61  128 1    
   122   61  129 1    
   123   62   63 2    
   124   62   64 am   BACKBONE|DICT|INTERRES
   125   64   65 1    
   126   64  130 1    
   127   65   66 1    
   128   65   69 1    
   129   65  131 1    
   130   66   67 am   BACKBONE|DICT|INTERRES
   131   66   68 2    
   132   67  132 1    
   133   67  133 1    
   134   69   70 1    
   135   69  134 1    
   136   69  135 1    
   137   70   71 1    
   138   71  136 1    
   139   71  137 1    
@<TRIPOS>SUBSTRUCTURE
     1 UNK         1 GROUP             0       ****    0 ROOT    
