@<TRIPOS>MOLECULE
3R136
137   139    1
SMALL
USER_CHARGES


@<TRIPOS>ATOM
      1 CA         31.6984   20.6205    2.1931 C.3       0 UNK        -0.1979 
      2 C          31.5112   21.8412    1.3037 C.2       0 UNK         0.4864 
      3 O          32.0888   21.8992    0.2166 O.2       0 UNK        -0.5359 
      4 N          30.7164   22.8178    1.7603 N.am      1 UNK        -0.4318 
      5 CA         30.3675   24.0281    1.0103 C.3       1 UNK         0.0824 
      6 C6         29.8707   25.1486    1.9585 C.3       12 UNK        -0.0944 
      7 S7         30.0625   26.8084    1.2213 S.3       12 UNK        -0.2672 
      8 C8         31.2880   27.5764    2.3279 C.3       12 UNK         0.0333 
      9 C9         30.7318   27.8001    3.7273 C.ar      12 UNK        -0.0807 
     10 C10        31.3808   27.2569    4.8400 C.ar      12 UNK        -0.0894 
     11 C11        30.8490   27.4252    6.1222 C.ar      12 UNK        -0.0804 
     12 C12        29.6526   28.1298    6.2852 C.ar      12 UNK        -0.0824 
     13 C13        29.0013   28.6902    5.1815 C.ar      12 UNK        -0.0762 
     14 C14        29.5594   28.5402    3.9089 C.ar      12 UNK        -0.0782 
     15 C15        27.7006   29.4588    5.3703 C.3       12 UNK         0.0230 
     16 S16        26.2955   28.6464    4.5360 S.3       12 UNK        -0.2608 
     17 C17        26.1682   29.5927    2.9771 C.3       12 UNK        -0.0989 
     18 CA         26.2121   28.7137    1.6932 C.3       5 UNK         0.0716 
     19 N          25.2046   27.6456    1.6768 N.am      5 UNK        -0.4135 
     20 C          23.8730   27.7971    1.6671 C.2       4 UNK         0.5031 
     21 O          23.3006   28.8885    1.6436 O.2       4 UNK        -0.5229 
     22 CA         23.0448   26.4978    1.6576 C.3       4 UNK         0.0329 
     23 CB         21.5302   26.7544    1.7754 C.3       4 UNK        -0.2001 
     24 N          23.3017   25.7367    0.4352 N.am      4 UNK        -0.4303 
     25 C          24.3324   24.9036    0.2461 C.2       3 UNK         0.5044 
     26 O          25.1367   24.6159    1.1358 O.2       3 UNK        -0.5152 
     27 CA         24.4997   24.3045   -1.1688 C.3       3 UNK         0.0319 
     28 CB         23.7505   25.0935   -2.2672 C.3       3 UNK        -0.2001 
     29 N          25.9026   24.1274   -1.5667 N.am      3 UNK        -0.4354 
     30 C          26.8741   25.0517   -1.5487 C.2       2 UNK         0.4964 
     31 O          26.7410   26.2005   -1.1194 O.2       2 UNK        -0.5047 
     32 CA         28.2323   24.6249   -2.1264 C.3       2 UNK         0.0288 
     33 CB         28.6718   25.5763   -3.2535 C.3       2 UNK        -0.2113 
     34 N          29.2470   24.6272   -1.0782 N.am      2 UNK        -0.4145 
     35 C          29.3310   23.7240   -0.0940 C.2       1 UNK         0.5006 
     36 O          28.6194   22.7168   -0.0260 O.2       1 UNK        -0.5103 
     37 C          26.1536   29.5703    0.4061 C.2       5 UNK         0.5055 
     38 O          26.0712   30.7986    0.4852 O.2       5 UNK        -0.5220 
     39 N          26.1927   28.9170   -0.7655 N.am      6 UNK        -0.4450 
     40 CA         26.2888   29.5891   -2.0683 C.3       6 UNK         0.0367 
     41 CB         25.8175   28.6394   -3.1812 C.3       6 UNK        -0.1929 
     42 C          27.7103   30.1078   -2.3594 C.2       6 UNK         0.5070 
     43 O          27.8708   30.9848   -3.2090 O.2       6 UNK        -0.5237 
     44 N          28.7044   29.5706   -1.6444 N.am      7 UNK        -0.4739 
     45 CA         30.0871   30.0369   -1.6026 C.3       7 UNK         0.0276 
     46 CB         31.0038   28.8885   -2.0626 C.3       7 UNK        -0.1927 
     47 C          30.4227   30.4748   -0.1669 C.2       7 UNK         0.5013 
     48 O          29.6181   30.2722    0.7468 O.2       7 UNK        -0.5193 
     49 N          31.6162   31.0496    0.0084 N.am      8 UNK        -0.4253 
     50 CA         32.1992   31.3997    1.3018 C.3       8 UNK         0.0242 
     51 CB         32.3042   32.9294    1.4192 C.3       8 UNK        -0.2000 
     52 C          33.5846   30.7498    1.3892 C.2       8 UNK         0.4948 
     53 O          34.2785   30.6617    0.3724 O.2       8 UNK        -0.5275 
     54 N          33.9634   30.3170    2.5942 N.am      9 UNK        -0.4246 
     55 CA         35.2301   29.6648    2.9137 C.3       9 UNK         0.0261 
     56 CB         35.2201   28.2057    2.4129 C.3       9 UNK        -0.1959 
     57 C          35.4222   29.7149    4.4340 C.2       9 UNK         0.5033 
     58 O          34.4673   30.0098    5.1591 O.2       9 UNK        -0.5390 
     59 N          36.6414   29.4063    4.8924 N.am      10 UNK        -0.4215 
     60 CA         36.9567   29.2165    6.3089 C.3       10 UNK         0.0240 
     61 CB         38.4798   29.2804    6.5109 C.3       10 UNK        -0.1982 
     62 C          36.3947   27.8700    6.7924 C.2       10 UNK         0.4970 
     63 O          36.6418   26.8478    6.1480 O.2       10 UNK        -0.4916 
     64 N          35.6540   27.8963    7.9044 N.am      11 UNK        -0.4279 
     65 CA         34.9627   26.7245    8.4698 C.3       11 UNK         0.1003 
     66 C          35.8580   25.8140    9.3594 C.2       11 UNK         0.5709 
     67 N          37.0997   26.1812    9.6542 N.am      11 UNK        -0.7358 
     68 O          35.4205   24.7460    9.7813 O.2       11 UNK        -0.4999 
     69 C69        33.6533   27.1251    9.2029 C.3       12 UNK        -0.0954 
     70 S70        32.5485   28.1371    8.1622 S.3       12 UNK        -0.2268 
     71 C71        31.5697   26.8508    7.3314 C.3       12 UNK         0.0203 
     72 H72        31.3526   19.7249    1.6777 H         1 UNK         0.0888 
     73 H73        32.7530   20.4899    2.4344 H         1 UNK         0.0888 
     74 H74        31.1453   20.7082    3.1281 H         1 UNK         0.0888 
     75 H75        30.2404   22.6961    2.6425 H         1 UNK         0.3017 
     76 H76        31.2819   24.3728    0.5212 H         1 UNK         0.0873 
     77 H77        28.8256   25.0029    2.2405 H         1 UNK         0.0745 
     78 H78        30.4324   25.1201    2.8933 H         1 UNK         0.0745 
     79 H79        31.5903   28.5338    1.9077 H         1 UNK         0.0705 
     80 H80        32.1815   26.9514    2.3518 H         1 UNK         0.0705 
     81 H81        32.2997   26.7015    4.7102 H         1 UNK         0.1334 
     82 H82        29.2382   28.2510    7.2769 H         1 UNK         0.1417 
     83 H83        29.0656   28.9719    3.0493 H         1 UNK         0.1562 
     84 H84        27.8238   30.4851    5.0230 H         1 UNK         0.0748 
     85 H85        27.4589   29.5341    6.4316 H         1 UNK         0.0748 
     86 H86        26.9701   30.3320    2.9379 H         1 UNK         0.0940 
     87 H87        25.2417   30.1686    3.0149 H         1 UNK         0.0940 
     88 H88        27.1803   28.2108    1.6720 H         1 UNK         0.0703 
     89 H89        25.5644   26.6983    1.6480 H         1 UNK         0.3081 
     90 H90        23.3489   25.9089    2.5259 H         1 UNK         0.0719 
     91 H91        21.2982   27.3053    2.6879 H         1 UNK         0.0809 
     92 H92        21.1503   27.3384    0.9360 H         1 UNK         0.0809 
     93 H93        20.9717   25.8190    1.8132 H         1 UNK         0.0809 
     94 H94        22.7056   25.9426   -0.3535 H         1 UNK         0.2990 
     95 H95        24.0680   23.3037   -1.1239 H         1 UNK         0.0690 
     96 H96        23.9300   24.6617   -3.2521 H         1 UNK         0.0788 
     97 H97        24.0688   26.1356   -2.3036 H         1 UNK         0.0788 
     98 H98        22.6712   25.0759   -2.1121 H         1 UNK         0.0788 
     99 H99        26.1456   23.1965   -1.8758 H         1 UNK         0.2993 
    100 H100       28.1543   23.6164   -2.5388 H         1 UNK         0.0949 
    101 H101       27.9316   25.5989   -4.0544 H         1 UNK         0.0767 
    102 H102       28.7967   26.5998   -2.8964 H         1 UNK         0.0767 
    103 H103       29.6169   25.2587   -3.6945 H         1 UNK         0.0767 
    104 H104       29.8146   25.4596   -1.0069 H         1 UNK         0.3013 
    105 H105       26.2874   27.9005   -0.7749 H         1 UNK         0.3121 
    106 H106       25.6214   30.4537   -2.0637 H         1 UNK         0.0774 
    107 H107       25.8392   29.1375   -4.1513 H         1 UNK         0.0815 
    108 H108       26.4510   27.7561   -3.2579 H         1 UNK         0.0815 
    109 H109       24.7930   28.3098   -3.0118 H         1 UNK         0.0815 
    110 H110       28.4558   28.9145   -0.9169 H         1 UNK         0.2987 
    111 H111       30.2250   30.8978   -2.2605 H         1 UNK         0.0949 
    112 H112       30.9343   28.0252   -1.4007 H         1 UNK         0.0806 
    113 H113       32.0493   29.1977   -2.0863 H         1 UNK         0.0806 
    114 H114       30.7448   28.5573   -3.0684 H         1 UNK         0.0806 
    115 H115       32.2546   31.1158   -0.7736 H         1 UNK         0.3010 
    116 H116       31.5817   31.0226    2.1205 H         1 UNK         0.0829 
    117 H117       32.9315   33.3533    0.6339 H         1 UNK         0.0813 
    118 H118       31.3221   33.3979    1.3525 H         1 UNK         0.0813 
    119 H119       32.7377   33.2193    2.3772 H         1 UNK         0.0813 
    120 H120       33.3764   30.4667    3.4077 H         1 UNK         0.3038 
    121 H121       36.0446   30.2173    2.4402 H         1 UNK         0.0769 
    122 H122       36.1739   27.7146    2.6086 H         1 UNK         0.0811 
    123 H123       35.0468   28.1483    1.3383 H         1 UNK         0.0811 
    124 H124       34.4469   27.6187    2.9092 H         1 UNK         0.0811 
    125 H125       37.3581   29.1409    4.2321 H         1 UNK         0.3204 
    126 H126       36.5001   30.0275    6.8810 H         1 UNK         0.0748 
    127 H127       38.7385   29.1650    7.5643 H         1 UNK         0.0771 
    128 H128       38.9959   28.4924    5.9605 H         1 UNK         0.0771 
    129 H129       38.8835   30.2385    6.1827 H         1 UNK         0.0771 
    130 H130       35.4922   28.7743    8.3750 H         1 UNK         0.2980 
    131 H131       34.6646   26.0890    7.6337 H         1 UNK         0.0545 
    132 H132       37.4704   27.0520    9.3101 H         1 UNK         0.3459 
    133 H133       37.6699   25.5790   10.2270 H         1 UNK         0.3459 
    134 H134       33.1069   26.2411    9.5373 H         1 UNK         0.0616 
    135 H135       33.8844   27.6986   10.1022 H         1 UNK         0.0616 
    136 H136       32.2236   26.0328    7.0254 H         1 UNK         0.0634 
    137 H137       30.8509   26.4288    8.0354 H         1 UNK         0.0634 
@<TRIPOS>BOND
     1    1    2 1    
     2    1   72 1    
     3    1   73 1    
     4    1   74 1    
     5    2    3 2    
     6    2    4 am   BACKBONE|DICT|INTERRES
     7    4    5 1    
     8    4   75 1    
     9    5    6 1    
    10    5   35 1    
    11    5   76 1    
    12    6    7 1    
    13    6   77 1    
    14    6   78 1    
    15    7    8 1    
    16    8    9 1    
    17    8   79 1    
    18    8   80 1    
    19    9   10 ar   
    20    9   14 ar   
    21   10   11 ar   
    22   10   81 1    
    23   11   12 ar   
    24   11   71 1    
    25   12   13 ar   
    26   12   82 1    
    27   13   14 ar   
    28   13   15 1    
    29   14   83 1    
    30   15   16 1    
    31   15   84 1    
    32   15   85 1    
    33   16   17 1    
    34   17   18 1    
    35   17   86 1    
    36   17   87 1    
    37   18   19 1    
    38   18   37 1    
    39   18   88 1    
    40   19   20 am   BACKBONE|DICT|INTERRES
    41   19   89 1    
    42   20   21 2    
    43   20   22 1    
    44   22   23 1    
    45   22   24 1    
    46   22   90 1    
    47   23   91 1    
    48   23   92 1    
    49   23   93 1    
    50   24   25 am   BACKBONE|DICT|INTERRES
    51   24   94 1    
    52   25   26 2    
    53   25   27 1    
    54   27   28 1    
    55   27   29 1    
    56   27   95 1    
    57   28   96 1    
    58   28   97 1    
    59   28   98 1    
    60   29   30 am   BACKBONE|DICT|INTERRES
    61   29   99 1    
    62   30   31 2    
    63   30   32 1    
    64   32   33 1    
    65   32   34 1    
    66   32  100 1    
    67   33  101 1    
    68   33  102 1    
    69   33  103 1    
    70   34   35 am   BACKBONE|DICT|INTERRES
    71   34  104 1    
    72   35   36 2    
    73   37   38 2    
    74   37   39 am   BACKBONE|DICT|INTERRES
    75   39   40 1    
    76   39  105 1    
    77   40   41 1    
    78   40   42 1    
    79   40  106 1    
    80   41  107 1    
    81   41  108 1    
    82   41  109 1    
    83   42   43 2    
    84   42   44 am   BACKBONE|DICT|INTERRES
    85   44   45 1    
    86   44  110 1    
    87   45   46 1    
    88   45   47 1    
    89   45  111 1    
    90   46  112 1    
    91   46  113 1    
    92   46  114 1    
    93   47   48 2    
    94   47   49 am   BACKBONE|DICT|INTERRES
    95   49   50 1    
    96   49  115 1    
    97   50   51 1    
    98   50   52 1    
    99   50  116 1    
   100   51  117 1    
   101   51  118 1    
   102   51  119 1    
   103   52   53 2    
   104   52   54 am   BACKBONE|DICT|INTERRES
   105   54   55 1    
   106   54  120 1    
   107   55   56 1    
   108   55   57 1    
   109   55  121 1    
   110   56  122 1    
   111   56  123 1    
   112   56  124 1    
   113   57   58 2    
   114   57   59 am   BACKBONE|DICT|INTERRES
   115   59   60 1    
   116   59  125 1    
   117   60   61 1    
   118   60   62 1    
   119   60  126 1    
   120   61  127 1    
   121   61  128 1    
   122   61  129 1    
   123   62   63 2    
   124   62   64 am   BACKBONE|DICT|INTERRES
   125   64   65 1    
   126   64  130 1    
   127   65   66 1    
   128   65   69 1    
   129   65  131 1    
   130   66   67 am   BACKBONE|DICT|INTERRES
   131   66   68 2    
   132   67  132 1    
   133   67  133 1    
   134   69   70 1    
   135   69  134 1    
   136   69  135 1    
   137   70   71 1    
   138   71  136 1    
   139   71  137 1    
@<TRIPOS>SUBSTRUCTURE
     1 UNK         1 GROUP             0       ****    0 ROOT    
