@<TRIPOS>MOLECULE
3R136
137   139    1
SMALL
USER_CHARGES


@<TRIPOS>ATOM
      1 CA         34.8028   21.5616   -0.9016 C.3       0 UNK        -0.1979 
      2 C          34.1361   22.7214   -0.1764 C.2       0 UNK         0.4864 
      3 O          34.7638   23.3518    0.6756 O.2       0 UNK        -0.5359 
      4 N          32.8748   23.0072   -0.5110 N.am      1 UNK        -0.4318 
      5 CA         32.0608   24.0748    0.0668 C.3       1 UNK         0.0824 
      6 C6         31.5182   23.7368    1.4826 C.3       12 UNK        -0.0944 
      7 S7         30.6438   22.1350    1.6036 S.3       12 UNK        -0.2672 
      8 C8         30.7918   21.7852    3.3838 C.3       12 UNK         0.0333 
      9 C9         29.9523   22.7487    4.2090 C.ar      12 UNK        -0.0807 
     10 C10        30.5408   23.8707    4.8003 C.ar      12 UNK        -0.0894 
     11 C11        29.7658   24.7914    5.5192 C.ar      12 UNK        -0.0804 
     12 C12        28.4014   24.5352    5.6869 C.ar      12 UNK        -0.0824 
     13 C13        27.7990   23.4169    5.1014 C.ar      12 UNK        -0.0762 
     14 C14        28.5813   22.5271    4.3620 C.ar      12 UNK        -0.0782 
     15 C15        26.3035   23.1719    5.2562 C.3       12 UNK         0.0230 
     16 S16        25.3479   23.8764    3.8705 S.3       12 UNK        -0.2608 
     17 C17        25.5643   25.6632    4.1574 C.3       12 UNK        -0.0989 
     18 CA         26.5880   26.2823    3.1569 C.3       5 UNK         0.0716 
     19 N          26.0071   26.6681    1.8687 N.am      5 UNK        -0.4135 
     20 C          25.0498   27.5869    1.6580 C.2       4 UNK         0.5031 
     21 O          24.4927   28.2086    2.5642 O.2       4 UNK        -0.5229 
     22 CA         24.6371   27.8943    0.2033 C.3       4 UNK         0.0329 
     23 CB         25.0560   29.3237   -0.1810 C.3       4 UNK        -0.2001 
     24 N          25.1915   26.9659   -0.7821 N.am      4 UNK        -0.4303 
     25 C          24.8071   25.6946   -0.9625 C.2       3 UNK         0.5044 
     26 O          23.8472   25.1808   -0.3883 O.2       3 UNK        -0.5152 
     27 CA         25.6610   24.8436   -1.9248 C.3       3 UNK         0.0319 
     28 CB         24.9614   24.7072   -3.2868 C.3       3 UNK        -0.2001 
     29 N          27.0234   25.3573   -2.1310 N.am      3 UNK        -0.4354 
     30 C          27.9526   25.4789   -1.1720 C.2       2 UNK         0.4964 
     31 O          27.7615   25.1763    0.0081 O.2       2 UNK        -0.5047 
     32 CA         29.2740   26.1431   -1.5871 C.3       2 UNK         0.0288 
     33 CB         29.1776   27.6669   -1.3945 C.3       2 UNK        -0.2113 
     34 N          30.3974   25.6415   -0.7984 N.am      2 UNK        -0.4145 
     35 C          30.9403   24.4257   -0.9263 C.2       1 UNK         0.5006 
     36 O          30.6014   23.6069   -1.7882 O.2       1 UNK        -0.5103 
     37 C          27.4071   27.4477    3.7414 C.2       5 UNK         0.5055 
     38 O          28.5803   27.5863    3.3945 O.2       5 UNK        -0.5220 
     39 N          26.7946   28.2627    4.6112 N.am      6 UNK        -0.4450 
     40 CA         27.4218   29.3570    5.3605 C.3       6 UNK         0.0367 
     41 CB         26.5500   29.6769    6.5891 C.3       6 UNK        -0.1929 
     42 C          27.7202   30.6039    4.5007 C.2       6 UNK         0.5070 
     43 O          27.3424   31.7181    4.8684 O.2       6 UNK        -0.5237 
     44 N          28.3968   30.3940    3.3686 N.am      7 UNK        -0.4739 
     45 CA         28.9271   31.4348    2.4928 C.3       7 UNK         0.0276 
     46 CB         29.1102   30.8435    1.0850 C.3       7 UNK        -0.1927 
     47 C          30.2497   32.0037    3.0388 C.2       7 UNK         0.5013 
     48 O          30.8916   31.3887    3.8969 O.2       7 UNK        -0.5193 
     49 N          30.6343   33.1734    2.5135 N.am      8 UNK        -0.4253 
     50 CA         31.8769   33.8794    2.8365 C.3       8 UNK         0.0242 
     51 CB         31.8302   35.2738    2.1871 C.3       8 UNK        -0.2000 
     52 C          33.1367   33.1165    2.3854 C.2       8 UNK         0.4948 
     53 O          33.0492   32.2133    1.5506 O.2       8 UNK        -0.5275 
     54 N          34.2901   33.5208    2.9382 N.am      9 UNK        -0.4246 
     55 CA         35.6296   32.9758    2.6742 C.3       9 UNK         0.0261 
     56 CB         36.0764   33.2911    1.2295 C.3       9 UNK        -0.1959 
     57 C          35.7466   31.4800    3.0318 C.2       9 UNK         0.5033 
     58 O          36.2982   30.7012    2.2523 O.2       9 UNK        -0.5390 
     59 N          35.2250   31.1275    4.2172 N.am      10 UNK        -0.4215 
     60 CA         35.1771   29.7882    4.8142 C.3       10 UNK         0.0240 
     61 CB         36.5976   29.2628    5.1191 C.3       10 UNK        -0.1982 
     62 C          34.3365   28.8058    3.9780 C.2       10 UNK         0.4970 
     63 O          34.8805   27.8671    3.3928 O.2       10 UNK        -0.4916 
     64 N          33.0183   29.0427    3.9655 N.am      11 UNK        -0.4279 
     65 CA         31.9959   28.1990    3.3238 C.3       11 UNK         0.1003 
     66 C          32.0077   28.2596    1.7667 C.2       11 UNK         0.5709 
     67 N          32.4992   29.3229    1.1429 N.am      11 UNK        -0.7358 
     68 O          31.5512   27.3346    1.0996 O.2       11 UNK        -0.4999 
     69 C69        31.9573   26.7307    3.8494 C.3       12 UNK        -0.0954 
     70 S70        32.0437   26.5323    5.6660 S.3       12 UNK        -0.2268 
     71 C71        30.3300   26.0850    6.1182 C.3       12 UNK         0.0203 
     72 H72        35.1121   20.8004   -0.1859 H         1 UNK         0.0888 
     73 H73        34.1338   21.0947   -1.6244 H         1 UNK         0.0888 
     74 H74        35.6876   21.9100   -1.4337 H         1 UNK         0.0888 
     75 H75        32.3963   22.4882   -1.2374 H         1 UNK         0.3017 
     76 H76        32.6917   24.9632    0.1479 H         1 UNK         0.0873 
     77 H77        30.8465   24.5223    1.8336 H         1 UNK         0.0745 
     78 H78        32.3523   23.7285    2.1855 H         1 UNK         0.0745 
     79 H79        31.8407   21.8286    3.6817 H         1 UNK         0.0705 
     80 H80        30.4646   20.7614    3.5708 H         1 UNK         0.0705 
     81 H81        31.6007   24.0313    4.6685 H         1 UNK         0.1334 
     82 H82        27.8019   25.2279    6.2608 H         1 UNK         0.1417 
     83 H83        28.1213   21.6672    3.8938 H         1 UNK         0.1562 
     84 H84        25.9427   23.5832    6.2003 H         1 UNK         0.0748 
     85 H85        26.1107   22.0990    5.3039 H         1 UNK         0.0748 
     86 H86        25.8680   25.8043    5.1947 H         1 UNK         0.0940 
     87 H87        24.5862   26.1392    4.0860 H         1 UNK         0.0940 
     88 H88        27.3312   25.5176    2.9211 H         1 UNK         0.0703 
     89 H89        26.4396   26.2170    1.0685 H         1 UNK         0.3081 
     90 H90        23.5478   27.8316    0.1577 H         1 UNK         0.0719 
     91 H91        26.1399   29.4418   -0.1725 H         1 UNK         0.0809 
     92 H92        24.6962   29.5895   -1.1751 H         1 UNK         0.0809 
     93 H93        24.6434   30.0551    0.5156 H         1 UNK         0.0809 
     94 H94        25.9797   27.2964   -1.3183 H         1 UNK         0.2990 
     95 H95        25.7477   23.8487   -1.4826 H         1 UNK         0.0690 
     96 H96        25.5066   24.0335   -3.9483 H         1 UNK         0.0788 
     97 H97        24.8654   25.6701   -3.7903 H         1 UNK         0.0788 
     98 H98        23.9563   24.2990   -3.1704 H         1 UNK         0.0788 
     99 H99        27.2546   25.6465   -3.0713 H         1 UNK         0.2993 
    100 H100       29.4686   25.9272   -2.6400 H         1 UNK         0.0949 
    101 H101       30.1059   28.1619   -1.6809 H         1 UNK         0.0767 
    102 H102       28.3819   28.0945   -2.0056 H         1 UNK         0.0767 
    103 H103       28.9705   27.9273   -0.3551 H         1 UNK         0.0767 
    104 H104       30.7390   26.2536   -0.0573 H         1 UNK         0.3013 
    105 H105       25.7979   28.1504    4.7362 H         1 UNK         0.3121 
    106 H106       28.3868   29.0036    5.7293 H         1 UNK         0.0774 
    107 H107       27.0147   30.4437    7.2105 H         1 UNK         0.0815 
    108 H108       25.5649   30.0443    6.2992 H         1 UNK         0.0815 
    109 H109       26.4103   28.7973    7.2178 H         1 UNK         0.0815 
    110 H110       28.6782   29.4362    3.1740 H         1 UNK         0.2987 
    111 H111       28.2036   32.2514    2.4368 H         1 UNK         0.0949 
    112 H112       29.5486   31.5695    0.3992 H         1 UNK         0.0806 
    113 H113       29.7617   29.9713    1.0950 H         1 UNK         0.0806 
    114 H114       28.1548   30.5365    0.6609 H         1 UNK         0.0806 
    115 H115       30.0648   33.5856    1.7893 H         1 UNK         0.3010 
    116 H116       31.9206   33.9955    3.9216 H         1 UNK         0.0829 
    117 H117       30.9629   35.8413    2.5253 H         1 UNK         0.0813 
    118 H118       32.7138   35.8607    2.4413 H         1 UNK         0.0813 
    119 H119       31.7862   35.2094    1.0990 H         1 UNK         0.0813 
    120 H120       34.2548   34.2770    3.6087 H         1 UNK         0.3038 
    121 H121       36.3124   33.4994    3.3453 H         1 UNK         0.0769 
    122 H122       37.1145   32.9974    1.0692 H         1 UNK         0.0811 
    123 H123       36.0056   34.3574    1.0155 H         1 UNK         0.0811 
    124 H124       35.4727   32.7601    0.4927 H         1 UNK         0.0811 
    125 H125       34.7830   31.8573    4.7588 H         1 UNK         0.3204 
    126 H126       34.6660   29.8957    5.7725 H         1 UNK         0.0748 
    127 H127       36.5525   28.3038    5.6367 H         1 UNK         0.0771 
    128 H128       37.1837   29.1119    4.2120 H         1 UNK         0.0771 
    129 H129       37.1460   29.9522    5.7610 H         1 UNK         0.0771 
    130 H130       32.6568   29.8725    4.4164 H         1 UNK         0.2980 
    131 H131       31.0465   28.6522    3.6072 H         1 UNK         0.0545 
    132 H132       32.4989   29.3356    0.1370 H         1 UNK         0.3459 
    133 H133       32.8272   30.1383    1.6460 H         1 UNK         0.3459 
    134 H134       31.0460   26.2524    3.4899 H         1 UNK         0.0616 
    135 H135       32.7809   26.1557    3.4232 H         1 UNK         0.0616 
    136 H136       29.6857   26.9182    5.8376 H         1 UNK         0.0634 
    137 H137       30.2792   26.0102    7.2051 H         1 UNK         0.0634 
@<TRIPOS>BOND
     1    1    2 1    
     2    1   72 1    
     3    1   73 1    
     4    1   74 1    
     5    2    3 2    
     6    2    4 am   BACKBONE|DICT|INTERRES
     7    4    5 1    
     8    4   75 1    
     9    5    6 1    
    10    5   35 1    
    11    5   76 1    
    12    6    7 1    
    13    6   77 1    
    14    6   78 1    
    15    7    8 1    
    16    8    9 1    
    17    8   79 1    
    18    8   80 1    
    19    9   10 ar   
    20    9   14 ar   
    21   10   11 ar   
    22   10   81 1    
    23   11   12 ar   
    24   11   71 1    
    25   12   13 ar   
    26   12   82 1    
    27   13   14 ar   
    28   13   15 1    
    29   14   83 1    
    30   15   16 1    
    31   15   84 1    
    32   15   85 1    
    33   16   17 1    
    34   17   18 1    
    35   17   86 1    
    36   17   87 1    
    37   18   19 1    
    38   18   37 1    
    39   18   88 1    
    40   19   20 am   BACKBONE|DICT|INTERRES
    41   19   89 1    
    42   20   21 2    
    43   20   22 1    
    44   22   23 1    
    45   22   24 1    
    46   22   90 1    
    47   23   91 1    
    48   23   92 1    
    49   23   93 1    
    50   24   25 am   BACKBONE|DICT|INTERRES
    51   24   94 1    
    52   25   26 2    
    53   25   27 1    
    54   27   28 1    
    55   27   29 1    
    56   27   95 1    
    57   28   96 1    
    58   28   97 1    
    59   28   98 1    
    60   29   30 am   BACKBONE|DICT|INTERRES
    61   29   99 1    
    62   30   31 2    
    63   30   32 1    
    64   32   33 1    
    65   32   34 1    
    66   32  100 1    
    67   33  101 1    
    68   33  102 1    
    69   33  103 1    
    70   34   35 am   BACKBONE|DICT|INTERRES
    71   34  104 1    
    72   35   36 2    
    73   37   38 2    
    74   37   39 am   BACKBONE|DICT|INTERRES
    75   39   40 1    
    76   39  105 1    
    77   40   41 1    
    78   40   42 1    
    79   40  106 1    
    80   41  107 1    
    81   41  108 1    
    82   41  109 1    
    83   42   43 2    
    84   42   44 am   BACKBONE|DICT|INTERRES
    85   44   45 1    
    86   44  110 1    
    87   45   46 1    
    88   45   47 1    
    89   45  111 1    
    90   46  112 1    
    91   46  113 1    
    92   46  114 1    
    93   47   48 2    
    94   47   49 am   BACKBONE|DICT|INTERRES
    95   49   50 1    
    96   49  115 1    
    97   50   51 1    
    98   50   52 1    
    99   50  116 1    
   100   51  117 1    
   101   51  118 1    
   102   51  119 1    
   103   52   53 2    
   104   52   54 am   BACKBONE|DICT|INTERRES
   105   54   55 1    
   106   54  120 1    
   107   55   56 1    
   108   55   57 1    
   109   55  121 1    
   110   56  122 1    
   111   56  123 1    
   112   56  124 1    
   113   57   58 2    
   114   57   59 am   BACKBONE|DICT|INTERRES
   115   59   60 1    
   116   59  125 1    
   117   60   61 1    
   118   60   62 1    
   119   60  126 1    
   120   61  127 1    
   121   61  128 1    
   122   61  129 1    
   123   62   63 2    
   124   62   64 am   BACKBONE|DICT|INTERRES
   125   64   65 1    
   126   64  130 1    
   127   65   66 1    
   128   65   69 1    
   129   65  131 1    
   130   66   67 am   BACKBONE|DICT|INTERRES
   131   66   68 2    
   132   67  132 1    
   133   67  133 1    
   134   69   70 1    
   135   69  134 1    
   136   69  135 1    
   137   70   71 1    
   138   71  136 1    
   139   71  137 1    
@<TRIPOS>SUBSTRUCTURE
     1 UNK         1 GROUP             0       ****    0 ROOT    
