@<TRIPOS>MOLECULE
3R136
137   139    1
SMALL
USER_CHARGES


@<TRIPOS>ATOM
      1 CA         26.7224   24.5517    4.3542 C.3       0 UNK        -0.1979 
      2 C          27.1996   24.2427    2.9439 C.2       0 UNK         0.4864 
      3 O          27.3399   25.1612    2.1322 O.2       0 UNK        -0.5359 
      4 N          27.4286   22.9515    2.6557 N.am      1 UNK        -0.4318 
      5 CA         27.8805   22.3951    1.3720 C.3       1 UNK         0.0824 
      6 C6         29.3510   22.7476    1.0494 C.3       12 UNK        -0.0944 
      7 S7         30.5202   21.7865    2.0762 S.3       12 UNK        -0.2672 
      8 C8         31.5284   23.0775    2.8949 C.3       12 UNK         0.0333 
      9 C9         32.3720   23.9736    1.9802 C.ar      12 UNK        -0.0807 
     10 C10        33.1540   24.9801    2.5586 C.ar      12 UNK        -0.0894 
     11 C11        33.9318   25.8353    1.7674 C.ar      12 UNK        -0.0804 
     12 C12        33.8911   25.7034    0.3741 C.ar      12 UNK        -0.0824 
     13 C13        33.1017   24.7156   -0.2197 C.ar      12 UNK        -0.0762 
     14 C14        32.3901   23.8303    0.5886 C.ar      12 UNK        -0.0782 
     15 C15        33.0026   24.5897   -1.7333 C.3       12 UNK         0.0230 
     16 S16        31.8094   25.7647   -2.4628 S.3       12 UNK        -0.2608 
     17 C17        30.2255   25.4018   -1.6129 C.3       12 UNK        -0.0989 
     18 CA         29.5662   26.6764   -1.0260 C.3       5 UNK         0.0716 
     19 N          28.1106   26.5467   -0.8777 N.am      5 UNK        -0.4135 
     20 C          27.2939   27.6123   -0.8517 C.2       4 UNK         0.5031 
     21 O          27.6915   28.7781   -0.8320 O.2       4 UNK        -0.5229 
     22 CA         25.7870   27.3579   -0.9002 C.3       4 UNK         0.0329 
     23 CB         25.3642   26.7766   -2.2629 C.3       4 UNK        -0.2001 
     24 N          25.3377   26.4827    0.1777 N.am      4 UNK        -0.4303 
     25 C          24.1151   26.5450    0.7235 C.2       3 UNK         0.5044 
     26 O          23.3062   27.4475    0.4953 O.2       3 UNK        -0.5152 
     27 CA         23.7122   25.3638    1.6293 C.3       3 UNK         0.0319 
     28 CB         22.2102   25.3536    1.9836 C.3       3 UNK        -0.2001 
     29 N          24.1152   24.0736    1.0553 N.am      3 UNK        -0.4354 
     30 C          23.8245   23.5863   -0.1648 C.2       2 UNK         0.4964 
     31 O          23.0278   24.1090   -0.9454 O.2       2 UNK        -0.5047 
     32 CA         24.5635   22.2982   -0.5860 C.3       2 UNK         0.0288 
     33 CB         24.8628   22.2546   -2.1006 C.3       2 UNK        -0.2113 
     34 N          25.7771   22.0460    0.2065 N.am      2 UNK        -0.4145 
     35 C          26.9033   22.7782    0.2409 C.2       1 UNK         0.5006 
     36 O          27.1350   23.7487   -0.4888 O.2       1 UNK        -0.5103 
     37 C          30.2583   27.2115    0.2479 C.2       5 UNK         0.5055 
     38 O          31.2668   27.9064    0.1217 O.2       5 UNK        -0.5220 
     39 N          29.6798   26.9855    1.4400 N.am      6 UNK        -0.4450 
     40 CA         30.1694   27.5224    2.7202 C.3       6 UNK         0.0367 
     41 CB         29.6080   26.6781    3.8762 C.3       6 UNK        -0.1929 
     42 C          29.8761   29.0271    2.9307 C.2       6 UNK         0.5070 
     43 O          29.5847   29.4438    4.0558 O.2       6 UNK        -0.5237 
     44 N          29.9687   29.8268    1.8623 N.am      7 UNK        -0.4739 
     45 CA         29.8195   31.2826    1.8635 C.3       7 UNK         0.0276 
     46 CB         29.8798   31.7842    0.4121 C.3       7 UNK        -0.1927 
     47 C          30.8997   31.9668    2.7173 C.2       7 UNK         0.5013 
     48 O          31.9828   31.4059    2.8923 O.2       7 UNK        -0.5193 
     49 N          30.5817   33.1610    3.2370 N.am      8 UNK        -0.4253 
     50 CA         31.4135   33.9560    4.1531 C.3       8 UNK         0.0242 
     51 CB         32.6721   34.4890    3.4327 C.3       8 UNK        -0.2000 
     52 C          31.7437   33.1965    5.4553 C.2       8 UNK         0.4948 
     53 O          32.8936   33.2050    5.8981 O.2       8 UNK        -0.5275 
     54 N          30.7198   32.5364    6.0220 N.am      9 UNK        -0.4246 
     55 CA         30.7532   31.7140    7.2382 C.3       9 UNK         0.0261 
     56 CB         30.9458   32.6039    8.4853 C.3       9 UNK        -0.1959 
     57 C          31.7876   30.5755    7.1460 C.2       9 UNK         0.5033 
     58 O          32.6936   30.4976    7.9786 O.2       9 UNK        -0.5390 
     59 N          31.6337   29.7302    6.1159 N.am      10 UNK        -0.4215 
     60 CA         32.5307   28.6321    5.7421 C.3       10 UNK         0.0240 
     61 CB         32.5582   27.5270    6.8204 C.3       10 UNK        -0.1982 
     62 C          33.9273   29.1282    5.3283 C.2       10 UNK         0.4970 
     63 O          34.9359   28.6366    5.8388 O.2       10 UNK        -0.4916 
     64 N          33.9460   30.0625    4.3700 N.am      11 UNK        -0.4279 
     65 CA         35.1363   30.5602    3.6666 C.3       11 UNK         0.1003 
     66 C          36.1066   31.3827    4.5649 C.2       11 UNK         0.5709 
     67 N          35.6094   32.1436    5.5325 N.am      11 UNK        -0.7358 
     68 O          37.3215   31.3533    4.3791 O.2       11 UNK        -0.4999 
     69 C69        35.8458   29.4573    2.8239 C.3       12 UNK        -0.0954 
     70 S70        34.7051   28.5362    1.7286 S.3       12 UNK        -0.2268 
     71 C71        34.8477   26.8597    2.4309 C.3       12 UNK         0.0203 
     72 H72        26.1026   23.7474    4.7498 H         1 UNK         0.0888 
     73 H73        27.5745   24.6883    5.0189 H         1 UNK         0.0888 
     74 H74        26.1320   25.4675    4.3649 H         1 UNK         0.0888 
     75 H75        27.2933   22.2662    3.3863 H         1 UNK         0.3017 
     76 H76        27.8231   21.3089    1.4662 H         1 UNK         0.0873 
     77 H77        29.5745   22.5107    0.0077 H         1 UNK         0.0745 
     78 H78        29.5279   23.8170    1.1727 H         1 UNK         0.0745 
     79 H79        30.8658   23.6950    3.4985 H         1 UNK         0.0705 
     80 H80        32.1987   22.5781    3.5957 H         1 UNK         0.0705 
     81 H81        33.1691   25.0859    3.6350 H         1 UNK         0.1334 
     82 H82        34.4671   26.3739   -0.2488 H         1 UNK         0.1417 
     83 H83        31.8278   23.0462    0.1075 H         1 UNK         0.1562 
     84 H84        32.7202   23.5748   -2.0179 H         1 UNK         0.0748 
     85 H85        33.9835   24.7650   -2.1776 H         1 UNK         0.0748 
     86 H86        30.3461   24.6396   -0.8501 H         1 UNK         0.0940 
     87 H87        29.5665   24.9582   -2.3611 H         1 UNK         0.0940 
     88 H88        29.7108   27.4564   -1.7779 H         1 UNK         0.0703 
     89 H89        27.7277   25.6049   -0.8552 H         1 UNK         0.3081 
     90 H90        25.3090   28.3339   -0.7892 H         1 UNK         0.0719 
     91 H91        25.7575   25.7702   -2.4126 H         1 UNK         0.0809 
     92 H92        24.2787   26.7222   -2.3492 H         1 UNK         0.0809 
     93 H93        25.7239   27.3974   -3.0845 H         1 UNK         0.0809 
     94 H94        25.9772   25.7550    0.4803 H         1 UNK         0.2990 
     95 H95        24.2716   25.4854    2.5575 H         1 UNK         0.0690 
     96 H96        21.9634   24.5194    2.6402 H         1 UNK         0.0788 
     97 H97        21.5851   25.2759    1.0934 H         1 UNK         0.0788 
     98 H98        21.9247   26.2692    2.5030 H         1 UNK         0.0788 
     99 H99        24.7743   23.5457    1.6073 H         1 UNK         0.2993 
    100 H100       23.8789   21.4781   -0.3637 H         1 UNK         0.0949 
    101 H101       25.3992   21.3460   -2.3737 H         1 UNK         0.0767 
    102 H102       23.9400   22.2712   -2.6817 H         1 UNK         0.0767 
    103 H103       25.4607   23.1078   -2.4225 H         1 UNK         0.0767 
    104 H104       25.7008   21.2771    0.8592 H         1 UNK         0.3013 
    105 H105       28.8247   26.4379    1.4800 H         1 UNK         0.3121 
    106 H106       31.2558   27.4115    2.7280 H         1 UNK         0.0774 
    107 H107       30.0726   26.9400    4.8267 H         1 UNK         0.0815 
    108 H108       28.5350   26.8333    3.9898 H         1 UNK         0.0815 
    109 H109       29.7811   25.6175    3.7151 H         1 UNK         0.0815 
    110 H110       30.3086   29.4033    1.0055 H         1 UNK         0.2987 
    111 H111       28.8394   31.5169    2.2840 H         1 UNK         0.0949 
    112 H112       30.8423   31.5596   -0.0499 H         1 UNK         0.0806 
    113 H113       29.1009   31.3254   -0.1980 H         1 UNK         0.0806 
    114 H114       29.7368   32.8643    0.3611 H         1 UNK         0.0806 
    115 H115       29.6713   33.5477    3.0271 H         1 UNK         0.3010 
    116 H116       30.8147   34.8189    4.4486 H         1 UNK         0.0829 
    117 H117       32.4102   35.0311    2.5243 H         1 UNK         0.0813 
    118 H118       33.2249   35.1777    4.0728 H         1 UNK         0.0813 
    119 H119       33.3560   33.6851    3.1585 H         1 UNK         0.0813 
    120 H120       29.8263   32.5753    5.5514 H         1 UNK         0.3038 
    121 H121       29.7752   31.2371    7.3220 H         1 UNK         0.0769 
    122 H122       31.9137   33.1065    8.4796 H         1 UNK         0.0811 
    123 H123       30.8935   32.0109    9.3992 H         1 UNK         0.0811 
    124 H124       30.1718   33.3685    8.5508 H         1 UNK         0.0811 
    125 H125       30.8506   29.8753    5.4815 H         1 UNK         0.3204 
    126 H126       32.1077   28.1868    4.8434 H         1 UNK         0.0748 
    127 H127       33.1273   26.6629    6.4754 H         1 UNK         0.0771 
    128 H128       33.0216   27.8702    7.7458 H         1 UNK         0.0771 
    129 H129       31.5529   27.1790    7.0572 H         1 UNK         0.0771 
    130 H130       33.0722   30.4371    4.0063 H         1 UNK         0.2980 
    131 H131       34.7536   31.2902    2.9528 H         1 UNK         0.0545 
    132 H132       34.6073   32.2458    5.6631 H         1 UNK         0.3459 
    133 H133       36.2407   32.6755    6.1088 H         1 UNK         0.3459 
    134 H134       36.6113   29.9070    2.1895 H         1 UNK         0.0616 
    135 H135       36.3723   28.7599    3.4775 H         1 UNK         0.0616 
    136 H136       35.8793   26.5211    2.3279 H         1 UNK         0.0634 
    137 H137       34.6440   26.9114    3.5008 H         1 UNK         0.0634 
@<TRIPOS>BOND
     1    1    2 1    
     2    1   72 1    
     3    1   73 1    
     4    1   74 1    
     5    2    3 2    
     6    2    4 am   BACKBONE|DICT|INTERRES
     7    4    5 1    
     8    4   75 1    
     9    5    6 1    
    10    5   35 1    
    11    5   76 1    
    12    6    7 1    
    13    6   77 1    
    14    6   78 1    
    15    7    8 1    
    16    8    9 1    
    17    8   79 1    
    18    8   80 1    
    19    9   10 ar   
    20    9   14 ar   
    21   10   11 ar   
    22   10   81 1    
    23   11   12 ar   
    24   11   71 1    
    25   12   13 ar   
    26   12   82 1    
    27   13   14 ar   
    28   13   15 1    
    29   14   83 1    
    30   15   16 1    
    31   15   84 1    
    32   15   85 1    
    33   16   17 1    
    34   17   18 1    
    35   17   86 1    
    36   17   87 1    
    37   18   19 1    
    38   18   37 1    
    39   18   88 1    
    40   19   20 am   BACKBONE|DICT|INTERRES
    41   19   89 1    
    42   20   21 2    
    43   20   22 1    
    44   22   23 1    
    45   22   24 1    
    46   22   90 1    
    47   23   91 1    
    48   23   92 1    
    49   23   93 1    
    50   24   25 am   BACKBONE|DICT|INTERRES
    51   24   94 1    
    52   25   26 2    
    53   25   27 1    
    54   27   28 1    
    55   27   29 1    
    56   27   95 1    
    57   28   96 1    
    58   28   97 1    
    59   28   98 1    
    60   29   30 am   BACKBONE|DICT|INTERRES
    61   29   99 1    
    62   30   31 2    
    63   30   32 1    
    64   32   33 1    
    65   32   34 1    
    66   32  100 1    
    67   33  101 1    
    68   33  102 1    
    69   33  103 1    
    70   34   35 am   BACKBONE|DICT|INTERRES
    71   34  104 1    
    72   35   36 2    
    73   37   38 2    
    74   37   39 am   BACKBONE|DICT|INTERRES
    75   39   40 1    
    76   39  105 1    
    77   40   41 1    
    78   40   42 1    
    79   40  106 1    
    80   41  107 1    
    81   41  108 1    
    82   41  109 1    
    83   42   43 2    
    84   42   44 am   BACKBONE|DICT|INTERRES
    85   44   45 1    
    86   44  110 1    
    87   45   46 1    
    88   45   47 1    
    89   45  111 1    
    90   46  112 1    
    91   46  113 1    
    92   46  114 1    
    93   47   48 2    
    94   47   49 am   BACKBONE|DICT|INTERRES
    95   49   50 1    
    96   49  115 1    
    97   50   51 1    
    98   50   52 1    
    99   50  116 1    
   100   51  117 1    
   101   51  118 1    
   102   51  119 1    
   103   52   53 2    
   104   52   54 am   BACKBONE|DICT|INTERRES
   105   54   55 1    
   106   54  120 1    
   107   55   56 1    
   108   55   57 1    
   109   55  121 1    
   110   56  122 1    
   111   56  123 1    
   112   56  124 1    
   113   57   58 2    
   114   57   59 am   BACKBONE|DICT|INTERRES
   115   59   60 1    
   116   59  125 1    
   117   60   61 1    
   118   60   62 1    
   119   60  126 1    
   120   61  127 1    
   121   61  128 1    
   122   61  129 1    
   123   62   63 2    
   124   62   64 am   BACKBONE|DICT|INTERRES
   125   64   65 1    
   126   64  130 1    
   127   65   66 1    
   128   65   69 1    
   129   65  131 1    
   130   66   67 am   BACKBONE|DICT|INTERRES
   131   66   68 2    
   132   67  132 1    
   133   67  133 1    
   134   69   70 1    
   135   69  134 1    
   136   69  135 1    
   137   70   71 1    
   138   71  136 1    
   139   71  137 1    
@<TRIPOS>SUBSTRUCTURE
     1 UNK         1 GROUP             0       ****    0 ROOT    
