@<TRIPOS>MOLECULE
3R136
137   139    1
SMALL
USER_CHARGES


@<TRIPOS>ATOM
      1 CA         27.0052   16.7750    0.2721 C.3       0 UNK        -0.1979 
      2 C          27.2297   17.8955   -0.7327 C.2       0 UNK         0.4864 
      3 O          26.5174   17.9699   -1.7356 O.2       0 UNK        -0.5359 
      4 N          28.2194   18.7599   -0.4767 N.am      1 UNK        -0.4318 
      5 CA         28.5339   19.9413   -1.2849 C.3       1 UNK         0.0824 
      6 C6         29.9854   20.4357   -1.0315 C.3       12 UNK        -0.0944 
      7 S7         30.4295   20.7477    0.7194 S.3       12 UNK        -0.2672 
      8 C8         30.1409   22.5384    0.8094 C.3       12 UNK         0.0333 
      9 C9         30.6334   23.1596    2.1049 C.ar      12 UNK        -0.0807 
     10 C10        31.9344   23.6647    2.1925 C.ar      12 UNK        -0.0894 
     11 C11        32.3653   24.3081    3.3563 C.ar      12 UNK        -0.0804 
     12 C12        31.4941   24.4259    4.4414 C.ar      12 UNK        -0.0824 
     13 C13        30.1860   23.9397    4.3596 C.ar      12 UNK        -0.0762 
     14 C14        29.7656   23.2947    3.1931 C.ar      12 UNK        -0.0782 
     15 C15        29.2217   24.1199    5.5231 C.3       12 UNK         0.0230 
     16 S16        28.2200   25.6343    5.3469 S.3       12 UNK        -0.2608 
     17 C17        29.4314   26.9435    5.7622 C.3       12 UNK        -0.0989 
     18 CA         29.5903   28.0413    4.6771 C.3       5 UNK         0.0716 
     19 N          29.7079   27.4868    3.3259 N.am      5 UNK        -0.4135 
     20 C          30.0640   28.1769    2.2340 C.2       4 UNK         0.5031 
     21 O          30.4895   29.3296    2.2750 O.2       4 UNK        -0.5229 
     22 CA         29.8433   27.5064    0.8632 C.3       4 UNK         0.0329 
     23 CB         31.1655   27.0076    0.2644 C.3       4 UNK        -0.2001 
     24 N          28.8814   26.4004    0.8884 N.am      4 UNK        -0.4303 
     25 C          27.5846   26.5023    1.2011 C.2       3 UNK         0.5044 
     26 O          27.0389   27.5738    1.4669 O.2       3 UNK        -0.5152 
     27 CA         26.7960   25.1825    1.3121 C.3       3 UNK         0.0319 
     28 CB         25.5441   25.3408    2.1954 C.3       3 UNK        -0.2001 
     29 N          26.3997   24.5625    0.0422 N.am      3 UNK        -0.4354 
     30 C          27.2091   24.1477   -0.9421 C.2       2 UNK         0.4964 
     31 O          28.4089   24.4132   -1.0259 O.2       2 UNK        -0.5047 
     32 CA         26.5942   23.2021   -1.9867 C.3       2 UNK         0.0288 
     33 CB         26.5336   23.8732   -3.3686 C.3       2 UNK        -0.2113 
     34 N          27.3889   21.9710   -2.0723 N.am      2 UNK        -0.4145 
     35 C          27.4879   21.0625   -1.0885 C.2       1 UNK         0.5006 
     36 O          26.8188   21.1091   -0.0514 O.2       1 UNK        -0.5103 
     37 C          28.4934   29.1247    4.8122 C.2       5 UNK         0.5055 
     38 O          28.5875   29.9427    5.7281 O.2       5 UNK        -0.5220 
     39 N          27.4855   29.1278    3.9259 N.am      6 UNK        -0.4450 
     40 CA         26.4167   30.1306    3.8976 C.3       6 UNK         0.0367 
     41 CB         25.0976   29.4429    3.5040 C.3       6 UNK        -0.1929 
     42 C          26.7247   31.3017    2.9445 C.2       6 UNK         0.5070 
     43 O          25.9639   32.2708    2.9301 O.2       6 UNK        -0.5237 
     44 N          27.8027   31.2030    2.1547 N.am      7 UNK        -0.4739 
     45 CA         28.2470   32.2387    1.2201 C.3       7 UNK         0.0276 
     46 CB         29.0278   31.5651    0.0775 C.3       7 UNK        -0.1927 
     47 C          29.1155   33.2971    1.9227 C.2       7 UNK         0.5013 
     48 O          29.5516   33.0942    3.0588 O.2       7 UNK        -0.5193 
     49 N          29.3780   34.4056    1.2166 N.am      8 UNK        -0.4253 
     50 CA         30.3413   35.4322    1.6247 C.3       8 UNK         0.0242 
     51 CB         30.1988   36.6593    0.7094 C.3       8 UNK        -0.2000 
     52 C          31.7770   34.8799    1.5749 C.2       8 UNK         0.4948 
     53 O          32.1018   34.1382    0.6440 O.2       8 UNK        -0.5275 
     54 N          32.5953   35.2531    2.5714 N.am      9 UNK        -0.4246 
     55 CA         33.9446   34.7301    2.8407 C.3       9 UNK         0.0261 
     56 CB         34.9387   35.1496    1.7356 C.3       9 UNK        -0.1959 
     57 C          33.9205   33.2079    3.0963 C.2       9 UNK         0.5033 
     58 O          34.6473   32.4535    2.4458 O.2       9 UNK        -0.5390 
     59 N          33.0373   32.8004    4.0191 N.am      10 UNK        -0.4215 
     60 CA         32.7180   31.4181    4.3792 C.3       10 UNK         0.0240 
     61 CB         31.6756   31.4356    5.5100 C.3       10 UNK        -0.1982 
     62 C          33.9364   30.5833    4.8067 C.2       10 UNK         0.4970 
     63 O          34.7463   31.0469    5.6126 O.2       10 UNK        -0.4916 
     64 N          34.0009   29.3505    4.2949 N.am      11 UNK        -0.4279 
     65 CA         34.9956   28.3255    4.6498 C.3       11 UNK         0.1003 
     66 C          34.7137   27.5810    5.9889 C.2       11 UNK         0.5709 
     67 N          33.5872   27.8052    6.6559 N.am      11 UNK        -0.7358 
     68 O          35.5417   26.7921    6.4377 O.2       11 UNK        -0.4999 
     69 C69        35.2370   27.3428    3.4704 C.3       12 UNK        -0.0954 
     70 S70        33.6977   26.6289    2.8000 S.3       12 UNK        -0.2268 
     71 C71        33.7510   24.9266    3.4325 C.3       12 UNK         0.0203 
     72 H72        27.1162   15.8063   -0.2143 H         1 UNK         0.0888 
     73 H73        27.7132   16.8219    1.0995 H         1 UNK         0.0888 
     74 H74        25.9984   16.8371    0.6840 H         1 UNK         0.0888 
     75 H75        28.7521   18.6747    0.3775 H         1 UNK         0.3017 
     76 H76        28.4745   19.6397   -2.3334 H         1 UNK         0.0873 
     77 H77        30.6785   19.6772   -1.3987 H         1 UNK         0.0745 
     78 H78        30.2019   21.3225   -1.6302 H         1 UNK         0.0745 
     79 H79        30.6097   23.0366   -0.0408 H         1 UNK         0.0705 
     80 H80        29.0695   22.7058    0.7245 H         1 UNK         0.0705 
     81 H81        32.6016   23.5845    1.3450 H         1 UNK         0.1334 
     82 H82        31.8350   24.9196    5.3404 H         1 UNK         0.1417 
     83 H83        28.7557   22.9127    3.1266 H         1 UNK         0.1562 
     84 H84        29.7610   24.1420    6.4715 H         1 UNK         0.0748 
     85 H85        28.5505   23.2615    5.5790 H         1 UNK         0.0748 
     86 H86        30.4039   26.4939    5.9504 H         1 UNK         0.0940 
     87 H87        29.1489   27.3786    6.7234 H         1 UNK         0.0940 
     88 H88        30.5342   28.5502    4.8768 H         1 UNK         0.0703 
     89 H89        29.3919   26.5340    3.2164 H         1 UNK         0.3081 
     90 H90        29.4412   28.2747    0.1997 H         1 UNK         0.0719 
     91 H91        31.9217   27.7941    0.2675 H         1 UNK         0.0809 
     92 H92        31.0346   26.6872   -0.7694 H         1 UNK         0.0809 
     93 H93        31.5659   26.1641    0.8253 H         1 UNK         0.0809 
     94 H94        29.2114   25.4992    0.5631 H         1 UNK         0.2990 
     95 H95        27.4510   24.4720    1.8178 H         1 UNK         0.0690 
     96 H96        24.8026   25.9928    1.7316 H         1 UNK         0.0788 
     97 H97        25.7994   25.7760    3.1630 H         1 UNK         0.0788 
     98 H98        25.0711   24.3787    2.3930 H         1 UNK         0.0788 
     99 H99        25.4253   24.3045   -0.0189 H         1 UNK         0.2993 
    100 H100       25.5792   22.9346   -1.6845 H         1 UNK         0.0949 
    101 H101       25.9322   24.7827   -3.3334 H         1 UNK         0.0767 
    102 H102       27.5256   24.1524   -3.7269 H         1 UNK         0.0767 
    103 H103       26.0812   23.2146   -4.1105 H         1 UNK         0.0767 
    104 H104       27.9890   21.8838   -2.8797 H         1 UNK         0.3013 
    105 H105       27.4638   28.4399    3.1779 H         1 UNK         0.3121 
    106 H106       26.2830   30.5546    4.8951 H         1 UNK         0.0774 
    107 H107       24.2615   30.1405    3.5668 H         1 UNK         0.0815 
    108 H108       25.1260   29.0648    2.4819 H         1 UNK         0.0815 
    109 H109       24.8715   28.6066    4.1656 H         1 UNK         0.0815 
    110 H110       28.4323   30.4230    2.2880 H         1 UNK         0.2987 
    111 H111       27.3719   32.7376    0.7972 H         1 UNK         0.0949 
    112 H112       29.9676   31.1373    0.4282 H         1 UNK         0.0806 
    113 H113       28.4474   30.7673   -0.3865 H         1 UNK         0.0806 
    114 H114       29.2752   32.2810   -0.7071 H         1 UNK         0.0806 
    115 H115       29.0112   34.4824    0.2792 H         1 UNK         0.3010 
    116 H116       30.1068   35.7305    2.6491 H         1 UNK         0.0829 
    117 H117       29.1916   37.0743    0.7542 H         1 UNK         0.0813 
    118 H118       30.8878   37.4506    1.0078 H         1 UNK         0.0813 
    119 H119       30.4162   36.4144   -0.3313 H         1 UNK         0.0813 
    120 H120       32.2306   35.8877    3.2691 H         1 UNK         0.3038 
    121 H121       34.2789   35.1924    3.7709 H         1 UNK         0.0769 
    122 H122       34.7015   34.6897    0.7758 H         1 UNK         0.0811 
    123 H123       35.9550   34.8498    1.9941 H         1 UNK         0.0811 
    124 H124       34.9449   36.2305    1.5969 H         1 UNK         0.0811 
    125 H125       32.4866   33.5080    4.4819 H         1 UNK         0.3204 
    126 H126       32.2664   30.9565    3.4988 H         1 UNK         0.0748 
    127 H127       31.4491   30.4295    5.8608 H         1 UNK         0.0771 
    128 H128       32.0266   32.0029    6.3730 H         1 UNK         0.0771 
    129 H129       30.7355   31.8762    5.1772 H         1 UNK         0.0771 
    130 H130       33.2922   29.0482    3.6414 H         1 UNK         0.2980 
    131 H131       35.9423   28.8429    4.8163 H         1 UNK         0.0545 
    132 H132       33.4291   27.3236    7.5267 H         1 UNK         0.3459 
    133 H133       32.9130   28.4669    6.3128 H         1 UNK         0.3459 
    134 H134       35.7225   27.8798    2.6544 H         1 UNK         0.0616 
    135 H135       35.9317   26.5473    3.7466 H         1 UNK         0.0616 
    136 H136       34.4665   24.3426    2.8518 H         1 UNK         0.0634 
    137 H137       34.1063   24.9246    4.4641 H         1 UNK         0.0634 
@<TRIPOS>BOND
     1    1    2 1    
     2    1   72 1    
     3    1   73 1    
     4    1   74 1    
     5    2    3 2    
     6    2    4 am   BACKBONE|DICT|INTERRES
     7    4    5 1    
     8    4   75 1    
     9    5    6 1    
    10    5   35 1    
    11    5   76 1    
    12    6    7 1    
    13    6   77 1    
    14    6   78 1    
    15    7    8 1    
    16    8    9 1    
    17    8   79 1    
    18    8   80 1    
    19    9   10 ar   
    20    9   14 ar   
    21   10   11 ar   
    22   10   81 1    
    23   11   12 ar   
    24   11   71 1    
    25   12   13 ar   
    26   12   82 1    
    27   13   14 ar   
    28   13   15 1    
    29   14   83 1    
    30   15   16 1    
    31   15   84 1    
    32   15   85 1    
    33   16   17 1    
    34   17   18 1    
    35   17   86 1    
    36   17   87 1    
    37   18   19 1    
    38   18   37 1    
    39   18   88 1    
    40   19   20 am   BACKBONE|DICT|INTERRES
    41   19   89 1    
    42   20   21 2    
    43   20   22 1    
    44   22   23 1    
    45   22   24 1    
    46   22   90 1    
    47   23   91 1    
    48   23   92 1    
    49   23   93 1    
    50   24   25 am   BACKBONE|DICT|INTERRES
    51   24   94 1    
    52   25   26 2    
    53   25   27 1    
    54   27   28 1    
    55   27   29 1    
    56   27   95 1    
    57   28   96 1    
    58   28   97 1    
    59   28   98 1    
    60   29   30 am   BACKBONE|DICT|INTERRES
    61   29   99 1    
    62   30   31 2    
    63   30   32 1    
    64   32   33 1    
    65   32   34 1    
    66   32  100 1    
    67   33  101 1    
    68   33  102 1    
    69   33  103 1    
    70   34   35 am   BACKBONE|DICT|INTERRES
    71   34  104 1    
    72   35   36 2    
    73   37   38 2    
    74   37   39 am   BACKBONE|DICT|INTERRES
    75   39   40 1    
    76   39  105 1    
    77   40   41 1    
    78   40   42 1    
    79   40  106 1    
    80   41  107 1    
    81   41  108 1    
    82   41  109 1    
    83   42   43 2    
    84   42   44 am   BACKBONE|DICT|INTERRES
    85   44   45 1    
    86   44  110 1    
    87   45   46 1    
    88   45   47 1    
    89   45  111 1    
    90   46  112 1    
    91   46  113 1    
    92   46  114 1    
    93   47   48 2    
    94   47   49 am   BACKBONE|DICT|INTERRES
    95   49   50 1    
    96   49  115 1    
    97   50   51 1    
    98   50   52 1    
    99   50  116 1    
   100   51  117 1    
   101   51  118 1    
   102   51  119 1    
   103   52   53 2    
   104   52   54 am   BACKBONE|DICT|INTERRES
   105   54   55 1    
   106   54  120 1    
   107   55   56 1    
   108   55   57 1    
   109   55  121 1    
   110   56  122 1    
   111   56  123 1    
   112   56  124 1    
   113   57   58 2    
   114   57   59 am   BACKBONE|DICT|INTERRES
   115   59   60 1    
   116   59  125 1    
   117   60   61 1    
   118   60   62 1    
   119   60  126 1    
   120   61  127 1    
   121   61  128 1    
   122   61  129 1    
   123   62   63 2    
   124   62   64 am   BACKBONE|DICT|INTERRES
   125   64   65 1    
   126   64  130 1    
   127   65   66 1    
   128   65   69 1    
   129   65  131 1    
   130   66   67 am   BACKBONE|DICT|INTERRES
   131   66   68 2    
   132   67  132 1    
   133   67  133 1    
   134   69   70 1    
   135   69  134 1    
   136   69  135 1    
   137   70   71 1    
   138   71  136 1    
   139   71  137 1    
@<TRIPOS>SUBSTRUCTURE
     1 UNK         1 GROUP             0       ****    0 ROOT    
