@<TRIPOS>MOLECULE
3R136
137   139    1
SMALL
USER_CHARGES


@<TRIPOS>ATOM
      1 CA         28.9888   20.3643   -2.6838 C.3       0 UNK        -0.1979 
      2 C          28.8990   21.3159   -1.5011 C.2       0 UNK         0.4864 
      3 O          28.9799   22.5311   -1.6838 O.2       0 UNK        -0.5359 
      4 N          28.7115   20.7802   -0.2879 N.am      1 UNK        -0.4318 
      5 CA         28.6686   21.5142    0.9871 C.3       1 UNK         0.0824 
      6 C6         29.0614   20.6110    2.1886 C.3       12 UNK        -0.0944 
      7 S7         30.6339   19.7173    1.9307 S.3       12 UNK        -0.2672 
      8 C8         31.8050   20.6954    2.9311 C.3       12 UNK         0.0333 
      9 C9         31.9932   22.1326    2.4493 C.ar      12 UNK        -0.0807 
     10 C10        32.1090   23.1611    3.3864 C.ar      12 UNK        -0.0894 
     11 C11        32.3270   24.4827    2.9870 C.ar      12 UNK        -0.0804 
     12 C12        32.3899   24.7756    1.6160 C.ar      12 UNK        -0.0824 
     13 C13        32.2729   23.7573    0.6581 C.ar      12 UNK        -0.0762 
     14 C14        32.0981   22.4392    1.0891 C.ar      12 UNK        -0.0782 
     15 C15        32.3807   24.0107   -0.8478 C.3       12 UNK         0.0230 
     16 S16        32.0313   25.7131   -1.4039 S.3       12 UNK        -0.2608 
     17 C17        30.2224   25.8146   -1.1909 C.3       12 UNK        -0.0989 
     18 CA         29.7691   27.2645   -0.8833 C.3       5 UNK         0.0716 
     19 N          28.3476   27.4705   -1.1641 N.am      5 UNK        -0.4135 
     20 C          27.8216   28.6028   -1.6546 C.2       4 UNK         0.5031 
     21 O          28.4902   29.5686   -2.0241 O.2       4 UNK        -0.5229 
     22 CA         26.2853   28.6813   -1.7509 C.3       4 UNK         0.0329 
     23 CB         25.8042   28.1629   -3.1159 C.3       4 UNK        -0.2001 
     24 N          25.6086   27.9390   -0.6858 N.am      4 UNK        -0.4303 
     25 C          25.6202   28.2845    0.6098 C.2       3 UNK         0.5044 
     26 O          26.0765   29.3484    1.0242 O.2       3 UNK        -0.5152 
     27 CA         25.0485   27.2702    1.6216 C.3       3 UNK         0.0319 
     28 CB         23.6682   27.7288    2.1186 C.3       3 UNK        -0.2001 
     29 N          24.9458   25.8898    1.1257 N.am      3 UNK        -0.4354 
     30 C          25.9709   25.1375    0.7033 C.2       2 UNK         0.4964 
     31 O          27.1359   25.5399    0.6426 O.2       2 UNK        -0.5047 
     32 CA         25.6206   23.7377    0.1825 C.3       2 UNK         0.0288 
     33 CB         25.0604   23.8263   -1.2472 C.3       2 UNK        -0.2113 
     34 N          26.8105   22.8922    0.1613 N.am      2 UNK        -0.4145 
     35 C          27.3210   22.2413    1.2122 C.2       1 UNK         0.5006 
     36 O          26.7656   22.1965    2.3124 O.2       1 UNK        -0.5103 
     37 C          30.0584   27.6632    0.5732 C.2       5 UNK         0.5055 
     38 O          30.9341   28.4932    0.8208 O.2       5 UNK        -0.5220 
     39 N          29.2764   27.1090    1.5098 N.am      6 UNK        -0.4450 
     40 CA         29.3452   27.3627    2.9488 C.3       6 UNK         0.0367 
     41 CB         28.7473   26.1525    3.6903 C.3       6 UNK        -0.1929 
     42 C          28.6768   28.6941    3.3413 C.2       6 UNK         0.5070 
     43 O          27.8806   28.7377    4.2814 O.2       6 UNK        -0.5237 
     44 N          29.0129   29.7676    2.6180 N.am      7 UNK        -0.4739 
     45 CA         28.4759   31.1171    2.7839 C.3       7 UNK         0.0276 
     46 CB         28.6019   31.8712    1.4471 C.3       7 UNK        -0.1927 
     47 C          29.1544   31.8480    3.9556 C.2       7 UNK         0.5013 
     48 O          29.8302   32.8586    3.7456 O.2       7 UNK        -0.5193 
     49 N          28.9763   31.2972    5.1658 N.am      8 UNK        -0.4253 
     50 CA         29.4656   31.7802    6.4617 C.3       8 UNK         0.0242 
     51 CB         28.6150   32.9826    6.9307 C.3       8 UNK        -0.2000 
     52 C          30.9802   32.0581    6.4415 C.2       8 UNK         0.4948 
     53 O          31.7675   31.1098    6.4384 O.2       8 UNK        -0.5275 
     54 N          31.3528   33.3450    6.3756 N.am      9 UNK        -0.4246 
     55 CA         32.7234   33.8567    6.2947 C.3       9 UNK         0.0261 
     56 CB         32.6862   35.3930    6.2648 C.3       9 UNK        -0.1959 
     57 C          33.5480   33.3173    5.1115 C.2       9 UNK         0.5033 
     58 O          34.7755   33.2978    5.2129 O.2       9 UNK        -0.5390 
     59 N          32.8864   32.8380    4.0454 N.am      10 UNK        -0.4215 
     60 CA         33.5159   32.1360    2.9189 C.3       10 UNK         0.0240 
     61 CB         32.4511   31.8074    1.8623 C.3       10 UNK        -0.1982 
     62 C          34.2757   30.8552    3.3218 C.2       10 UNK         0.4970 
     63 O          35.2300   30.4900    2.6340 O.2       10 UNK        -0.4916 
     64 N          33.8623   30.2253    4.4287 N.am      11 UNK        -0.4279 
     65 CA         34.5382   29.0891    5.0703 C.3       11 UNK         0.1003 
     66 C          35.1912   29.4818    6.4297 C.2       11 UNK         0.5709 
     67 N          35.3843   30.7600    6.7379 N.am      11 UNK        -0.7358 
     68 O          35.5614   28.6133    7.2164 O.2       11 UNK        -0.4999 
     69 C69        33.5859   27.8683    5.1871 C.3       12 UNK        -0.0954 
     70 S70        33.2482   27.1160    3.5613 S.3       12 UNK        -0.2268 
     71 C71        32.4973   25.5372    4.0840 C.3       12 UNK         0.0203 
     72 H72        28.9031   19.3223   -2.3760 H         1 UNK         0.0888 
     73 H73        28.1920   20.5756   -3.3962 H         1 UNK         0.0888 
     74 H74        29.9440   20.4902   -3.1926 H         1 UNK         0.0888 
     75 H75        28.6338   19.7767   -0.2021 H         1 UNK         0.3017 
     76 H76        29.4074   22.3145    0.9303 H         1 UNK         0.0873 
     77 H77        28.2852   19.8656    2.3717 H         1 UNK         0.0745 
     78 H78        29.1351   21.2019    3.1038 H         1 UNK         0.0745 
     79 H79        31.4689   20.6777    3.9691 H         1 UNK         0.0705 
     80 H80        32.7751   20.1972    2.9140 H         1 UNK         0.0705 
     81 H81        32.0514   22.9283    4.4414 H         1 UNK         0.1334 
     82 H82        32.5477   25.7937    1.2925 H         1 UNK         0.1417 
     83 H83        32.0325   21.6449    0.3577 H         1 UNK         0.1562 
     84 H84        31.7128   23.3356   -1.3859 H         1 UNK         0.0748 
     85 H85        33.3934   23.7543   -1.1611 H         1 UNK         0.0748 
     86 H86        29.8868   25.1130   -0.4237 H         1 UNK         0.0940 
     87 H87        29.7701   25.4701   -2.1224 H         1 UNK         0.0940 
     88 H88        30.3456   27.9342   -1.5258 H         1 UNK         0.0703 
     89 H89        27.7219   26.7495   -0.8233 H         1 UNK         0.3081 
     90 H90        26.0017   29.7326   -1.6645 H         1 UNK         0.0719 
     91 H91        26.2759   28.7152   -3.9300 H         1 UNK         0.0809 
     92 H92        26.0431   27.1079   -3.2568 H         1 UNK         0.0809 
     93 H93        24.7264   28.2821   -3.2284 H         1 UNK         0.0809 
     94 H94        25.1777   27.0628   -0.9399 H         1 UNK         0.2990 
     95 H95        25.7303   27.2603    2.4745 H         1 UNK         0.0690 
     96 H96        23.7160   28.7401    2.5257 H         1 UNK         0.0788 
     97 H97        23.2960   27.0813    2.9127 H         1 UNK         0.0788 
     98 H98        22.9313   27.7357    1.3145 H         1 UNK         0.0788 
     99 H99        24.0184   25.4889    1.1173 H         1 UNK         0.2993 
    100 H100       24.8705   23.2908    0.8389 H         1 UNK         0.0949 
    101 H101       24.8148   22.8376   -1.6358 H         1 UNK         0.0767 
    102 H102       24.1454   24.4193   -1.2794 H         1 UNK         0.0767 
    103 H103       25.7737   24.2853   -1.9337 H         1 UNK         0.0767 
    104 H104       27.3854   22.9260   -0.6761 H         1 UNK         0.3013 
    105 H105       28.5360   26.4763    1.2097 H         1 UNK         0.3121 
    106 H106       30.3934   27.4481    3.2335 H         1 UNK         0.0774 
    107 H107       28.8486   26.2651    4.7703 H         1 UNK         0.0815 
    108 H108       27.6861   26.0299    3.4715 H         1 UNK         0.0815 
    109 H109       29.2532   25.2274    3.4123 H         1 UNK         0.0815 
    110 H110       29.7098   29.6353    1.8916 H         1 UNK         0.2987 
    111 H111       27.4115   31.0446    3.0194 H         1 UNK         0.0949 
    112 H112       28.2041   32.8834    1.5300 H         1 UNK         0.0806 
    113 H113       29.6374   31.9520    1.1185 H         1 UNK         0.0806 
    114 H114       28.0422   31.3679    0.6581 H         1 UNK         0.0806 
    115 H115       28.4658   30.4185    5.1852 H         1 UNK         0.3010 
    116 H116       29.3152   30.9690    7.1757 H         1 UNK         0.0829 
    117 H117       28.6305   33.8075    6.2173 H         1 UNK         0.0813 
    118 H118       27.5733   32.6905    7.0646 H         1 UNK         0.0813 
    119 H119       28.9628   33.3632    7.8922 H         1 UNK         0.0813 
    120 H120       30.6175   34.0360    6.3356 H         1 UNK         0.3038 
    121 H121       33.2352   33.5439    7.2071 H         1 UNK         0.0769 
    122 H122       32.1532   35.7663    5.3893 H         1 UNK         0.0811 
    123 H123       33.6948   35.8080    6.2335 H         1 UNK         0.0811 
    124 H124       32.2006   35.7973    7.1532 H         1 UNK         0.0811 
    125 H125       31.8719   32.8994    4.0369 H         1 UNK         0.3204 
    126 H126       34.2417   32.8196    2.4739 H         1 UNK         0.0748 
    127 H127       32.9004   31.3396    0.9851 H         1 UNK         0.0771 
    128 H128       31.7045   31.1137    2.2503 H         1 UNK         0.0771 
    129 H129       31.9369   32.7069    1.5236 H         1 UNK         0.0771 
    130 H130       33.0879   30.6122    4.9589 H         1 UNK         0.2980 
    131 H131       35.3861   28.7778    4.4581 H         1 UNK         0.0545 
    132 H132       35.8178   30.9870    7.6183 H         1 UNK         0.3459 
    133 H133       35.1417   31.5014    6.0917 H         1 UNK         0.3459 
    134 H134       32.6427   28.1537    5.6566 H         1 UNK         0.0616 
    135 H135       34.0247   27.0938    5.8180 H         1 UNK         0.0616 
    136 H136       33.1238   25.1141    4.8707 H         1 UNK         0.0634 
    137 H137       31.5282   25.7396    4.5396 H         1 UNK         0.0634 
@<TRIPOS>BOND
     1    1    2 1    
     2    1   72 1    
     3    1   73 1    
     4    1   74 1    
     5    2    3 2    
     6    2    4 am   BACKBONE|DICT|INTERRES
     7    4    5 1    
     8    4   75 1    
     9    5    6 1    
    10    5   35 1    
    11    5   76 1    
    12    6    7 1    
    13    6   77 1    
    14    6   78 1    
    15    7    8 1    
    16    8    9 1    
    17    8   79 1    
    18    8   80 1    
    19    9   10 ar   
    20    9   14 ar   
    21   10   11 ar   
    22   10   81 1    
    23   11   12 ar   
    24   11   71 1    
    25   12   13 ar   
    26   12   82 1    
    27   13   14 ar   
    28   13   15 1    
    29   14   83 1    
    30   15   16 1    
    31   15   84 1    
    32   15   85 1    
    33   16   17 1    
    34   17   18 1    
    35   17   86 1    
    36   17   87 1    
    37   18   19 1    
    38   18   37 1    
    39   18   88 1    
    40   19   20 am   BACKBONE|DICT|INTERRES
    41   19   89 1    
    42   20   21 2    
    43   20   22 1    
    44   22   23 1    
    45   22   24 1    
    46   22   90 1    
    47   23   91 1    
    48   23   92 1    
    49   23   93 1    
    50   24   25 am   BACKBONE|DICT|INTERRES
    51   24   94 1    
    52   25   26 2    
    53   25   27 1    
    54   27   28 1    
    55   27   29 1    
    56   27   95 1    
    57   28   96 1    
    58   28   97 1    
    59   28   98 1    
    60   29   30 am   BACKBONE|DICT|INTERRES
    61   29   99 1    
    62   30   31 2    
    63   30   32 1    
    64   32   33 1    
    65   32   34 1    
    66   32  100 1    
    67   33  101 1    
    68   33  102 1    
    69   33  103 1    
    70   34   35 am   BACKBONE|DICT|INTERRES
    71   34  104 1    
    72   35   36 2    
    73   37   38 2    
    74   37   39 am   BACKBONE|DICT|INTERRES
    75   39   40 1    
    76   39  105 1    
    77   40   41 1    
    78   40   42 1    
    79   40  106 1    
    80   41  107 1    
    81   41  108 1    
    82   41  109 1    
    83   42   43 2    
    84   42   44 am   BACKBONE|DICT|INTERRES
    85   44   45 1    
    86   44  110 1    
    87   45   46 1    
    88   45   47 1    
    89   45  111 1    
    90   46  112 1    
    91   46  113 1    
    92   46  114 1    
    93   47   48 2    
    94   47   49 am   BACKBONE|DICT|INTERRES
    95   49   50 1    
    96   49  115 1    
    97   50   51 1    
    98   50   52 1    
    99   50  116 1    
   100   51  117 1    
   101   51  118 1    
   102   51  119 1    
   103   52   53 2    
   104   52   54 am   BACKBONE|DICT|INTERRES
   105   54   55 1    
   106   54  120 1    
   107   55   56 1    
   108   55   57 1    
   109   55  121 1    
   110   56  122 1    
   111   56  123 1    
   112   56  124 1    
   113   57   58 2    
   114   57   59 am   BACKBONE|DICT|INTERRES
   115   59   60 1    
   116   59  125 1    
   117   60   61 1    
   118   60   62 1    
   119   60  126 1    
   120   61  127 1    
   121   61  128 1    
   122   61  129 1    
   123   62   63 2    
   124   62   64 am   BACKBONE|DICT|INTERRES
   125   64   65 1    
   126   64  130 1    
   127   65   66 1    
   128   65   69 1    
   129   65  131 1    
   130   66   67 am   BACKBONE|DICT|INTERRES
   131   66   68 2    
   132   67  132 1    
   133   67  133 1    
   134   69   70 1    
   135   69  134 1    
   136   69  135 1    
   137   70   71 1    
   138   71  136 1    
   139   71  137 1    
@<TRIPOS>SUBSTRUCTURE
     1 UNK         1 GROUP             0       ****    0 ROOT    
