@<TRIPOS>MOLECULE
3R136
137   139    1
SMALL
USER_CHARGES


@<TRIPOS>ATOM
      1 CA         28.9028   18.6267    4.4772 C.3       0 UNK        -0.1979 
      2 C          29.0491   20.1153    4.1999 C.2       0 UNK         0.4864 
      3 O          29.3558   20.8764    5.1184 O.2       0 UNK        -0.5359 
      4 N          28.8096   20.5319    2.9477 N.am      1 UNK        -0.4318 
      5 CA         28.9311   21.8896    2.3849 C.3       1 UNK         0.0824 
      6 C6         30.3649   22.4779    2.4484 C.3       12 UNK        -0.0944 
      7 S7         31.5812   21.4604    1.5475 S.3       12 UNK        -0.2672 
      8 C8         31.7438   22.3818   -0.0248 C.3       12 UNK         0.0333 
      9 C9         32.3772   23.7718    0.0847 C.ar      12 UNK        -0.0807 
     10 C10        33.2431   24.1188    1.1292 C.ar      12 UNK        -0.0894 
     11 C11        33.7924   25.4013    1.2072 C.ar      12 UNK        -0.0804 
     12 C12        33.5172   26.3302    0.2013 C.ar      12 UNK        -0.0824 
     13 C13        32.6712   25.9973   -0.8616 C.ar      12 UNK        -0.0762 
     14 C14        32.1000   24.7205   -0.9062 C.ar      12 UNK        -0.0782 
     15 C15        32.3930   26.9928   -1.9850 C.3       12 UNK         0.0230 
     16 S16        32.0245   28.6834   -1.4049 S.3       12 UNK        -0.2608 
     17 C17        30.4315   28.4396   -0.5506 C.3       12 UNK        -0.0989 
     18 CA         29.2046   28.5856   -1.4896 C.3       5 UNK         0.0716 
     19 N          28.0060   28.0327   -0.8730 N.am      5 UNK        -0.4135 
     20 C          27.6455   26.7478   -0.8820 C.2       4 UNK         0.5031 
     21 O          28.2908   25.8582   -1.4403 O.2       4 UNK        -0.5229 
     22 CA         26.3685   26.4057   -0.0953 C.3       4 UNK         0.0329 
     23 CB         25.7919   25.0286   -0.4736 C.3       4 UNK        -0.2001 
     24 N          26.6439   26.4385    1.3430 N.am      4 UNK        -0.4303 
     25 C          26.6860   27.5561    2.0868 C.2       3 UNK         0.5044 
     26 O          26.4327   28.6732    1.6327 O.2       3 UNK        -0.5152 
     27 CA         27.0658   27.4061    3.5713 C.3       3 UNK         0.0319 
     28 CB         26.5114   28.5381    4.4565 C.3       3 UNK        -0.2001 
     29 N          26.6149   26.1139    4.0837 N.am      3 UNK        -0.4354 
     30 C          27.3617   25.2694    4.8010 C.2       2 UNK         0.4964 
     31 O          28.4764   25.5420    5.2495 O.2       2 UNK        -0.5047 
     32 CA         26.8174   23.8429    4.9971 C.3       2 UNK         0.0288 
     33 CB         25.3210   23.6725    4.6457 C.3       2 UNK        -0.2113 
     34 N          27.6389   22.8886    4.2441 N.am      2 UNK        -0.4145 
     35 C          27.9128   22.9127    2.9311 C.2       1 UNK         0.5006 
     36 O          27.4092   23.7189    2.1467 O.2       1 UNK        -0.5103 
     37 C          28.9160   30.0497   -1.8620 C.2       5 UNK         0.5055 
     38 O          28.0062   30.6625   -1.2962 O.2       5 UNK        -0.5220 
     39 N          29.7093   30.5877   -2.7972 N.am      6 UNK        -0.4450 
     40 CA         29.7167   32.0066   -3.1622 C.3       6 UNK         0.0367 
     41 CB         30.4086   32.1748   -4.5248 C.3       6 UNK        -0.1929 
     42 C          30.4001   32.8873   -2.0986 C.2       6 UNK         0.5070 
     43 O          30.1178   34.0846   -2.0379 O.2       6 UNK        -0.5237 
     44 N          31.2850   32.2910   -1.2862 N.am      7 UNK        -0.4739 
     45 CA         31.9305   32.9331   -0.1419 C.3       7 UNK         0.0276 
     46 CB         33.1064   32.0598    0.3264 C.3       7 UNK        -0.1927 
     47 C          30.9306   33.1393    1.0067 C.2       7 UNK         0.5013 
     48 O          30.1128   32.2550    1.2708 O.2       7 UNK        -0.5193 
     49 N          31.0391   34.2786    1.6998 N.am      8 UNK        -0.4253 
     50 CA         30.2022   34.6441    2.8458 C.3       8 UNK         0.0242 
     51 CB         30.1286   36.1805    2.9380 C.3       8 UNK        -0.2000 
     52 C          30.7109   33.9933    4.1474 C.2       8 UNK         0.4948 
     53 O          31.0554   34.7002    5.0970 O.2       8 UNK        -0.5275 
     54 N          30.7683   32.6581    4.1645 N.am      9 UNK        -0.4246 
     55 CA         31.2075   31.8398    5.2901 C.3       9 UNK         0.0261 
     56 CB         32.7458   31.7592    5.3132 C.3       9 UNK        -0.1959 
     57 C          30.5923   30.4432    5.1599 C.2       9 UNK         0.5033 
     58 O          30.2982   30.0075    4.0438 O.2       9 UNK        -0.5390 
     59 N          30.4345   29.7623    6.2995 N.am      10 UNK        -0.4215 
     60 CA         30.0272   28.3604    6.3681 C.3       10 UNK         0.0240 
     61 CB         29.1907   28.1350    7.6384 C.3       10 UNK        -0.1982 
     62 C          31.2697   27.4587    6.3713 C.2       10 UNK         0.4970 
     63 O          32.2984   27.8414    6.9354 O.2       10 UNK        -0.4916 
     64 N          31.1292   26.2729    5.7764 N.am      11 UNK        -0.4279 
     65 CA         32.1489   25.2143    5.7193 C.3       11 UNK         0.1003 
     66 C          31.6260   23.8452    6.2376 C.2       11 UNK         0.5709 
     67 N          30.3274   23.6491    6.4322 N.am      11 UNK        -0.7358 
     68 O          32.4228   22.9426    6.4824 O.2       11 UNK        -0.4999 
     69 C69        32.7398   25.0617    4.2938 C.3       12 UNK        -0.0954 
     70 S70        33.6916   26.5146    3.7375 S.3       12 UNK        -0.2268 
     71 C71        34.6734   25.7880    2.3858 C.3       12 UNK         0.0203 
     72 H72        28.1390   18.4600    5.2362 H         1 UNK         0.0888 
     73 H73        28.6216   18.0697    3.5836 H         1 UNK         0.0888 
     74 H74        29.8446   18.2217    4.8463 H         1 UNK         0.0888 
     75 H75        28.5320   19.8359    2.2696 H         1 UNK         0.3017 
     76 H76        28.6805   21.7761    1.3287 H         1 UNK         0.0873 
     77 H77        30.6983   22.5686    3.4834 H         1 UNK         0.0745 
     78 H78        30.3839   23.4907    2.0407 H         1 UNK         0.0745 
     79 H79        30.7532   22.4606   -0.4757 H         1 UNK         0.0705 
     80 H80        32.3477   21.7851   -0.7094 H         1 UNK         0.0705 
     81 H81        33.4799   23.4003    1.9006 H         1 UNK         0.1334 
     82 H82        33.9558   27.3174    0.2518 H         1 UNK         0.1417 
     83 H83        31.4421   24.4589   -1.7244 H         1 UNK         0.1562 
     84 H84        31.5644   26.6512   -2.6074 H         1 UNK         0.0748 
     85 H85        33.2687   27.0323   -2.6340 H         1 UNK         0.0748 
     86 H86        30.3682   29.1424    0.2837 H         1 UNK         0.0940 
     87 H87        30.4403   27.4496   -0.0917 H         1 UNK         0.0940 
     88 H88        29.3885   28.0396   -2.4177 H         1 UNK         0.0703 
     89 H89        27.4263   28.7132   -0.3910 H         1 UNK         0.3081 
     90 H90        25.6116   27.1556   -0.3360 H         1 UNK         0.0719 
     91 H91        25.5349   24.9938   -1.5329 H         1 UNK         0.0809 
     92 H92        26.5027   24.2232   -0.2865 H         1 UNK         0.0809 
     93 H93        24.8842   24.8101    0.0890 H         1 UNK         0.0809 
     94 H94        26.9184   25.5514    1.7594 H         1 UNK         0.2990 
     95 H95        28.1562   27.4554    3.5971 H         1 UNK         0.0690 
     96 H96        26.7989   28.4019    5.4989 H         1 UNK         0.0788 
     97 H97        25.4230   28.5867    4.4116 H         1 UNK         0.0788 
     98 H98        26.8995   29.5073    4.1402 H         1 UNK         0.0788 
     99 H99        25.7218   25.7876    3.7403 H         1 UNK         0.2993 
    100 H100       26.9439   23.6068    6.0548 H         1 UNK         0.0949 
    101 H101       25.1156   23.8416    3.5881 H         1 UNK         0.0767 
    102 H102       24.9820   22.6641    4.8836 H         1 UNK         0.0767 
    103 H103       24.6999   24.3598    5.2219 H         1 UNK         0.0767 
    104 H104       28.1646   22.2106    4.7940 H         1 UNK         0.3013 
    105 H105       30.4321   30.0114   -3.2061 H         1 UNK         0.3121 
    106 H106       28.6832   32.3472   -3.2582 H         1 UNK         0.0774 
    107 H107       30.4049   33.2202   -4.8365 H         1 UNK         0.0815 
    108 H108       31.4489   31.8483   -4.4939 H         1 UNK         0.0815 
    109 H109       29.8992   31.6051   -5.3022 H         1 UNK         0.0815 
    110 H110       31.4305   31.2964   -1.3841 H         1 UNK         0.2987 
    111 H111       32.3168   33.9034   -0.4625 H         1 UNK         0.0949 
    112 H112       33.8337   31.9099   -0.4718 H         1 UNK         0.0806 
    113 H113       33.6320   32.5260    1.1608 H         1 UNK         0.0806 
    114 H114       32.7705   31.0774    0.6624 H         1 UNK         0.0806 
    115 H115       31.7659   34.9344    1.4501 H         1 UNK         0.3010 
    116 H116       29.1872   34.2762    2.6785 H         1 UNK         0.0829 
    117 H117       31.1106   36.6243    3.1076 H         1 UNK         0.0813 
    118 H118       29.4833   36.4921    3.7606 H         1 UNK         0.0813 
    119 H119       29.7175   36.6134    2.0258 H         1 UNK         0.0813 
    120 H120       30.4509   32.1346    3.3513 H         1 UNK         0.3038 
    121 H121       30.8499   32.2895    6.2192 H         1 UNK         0.0769 
    122 H122       33.0950   31.1319    6.1344 H         1 UNK         0.0811 
    123 H123       33.1949   32.7436    5.4453 H         1 UNK         0.0811 
    124 H124       33.1376   31.3337    4.3883 H         1 UNK         0.0811 
    125 H125       30.7650   30.1713    7.1620 H         1 UNK         0.3204 
    126 H126       29.4104   28.1142    5.5024 H         1 UNK         0.0748 
    127 H127       29.7643   28.3372    8.5440 H         1 UNK         0.0771 
    128 H128       28.3078   28.7743    7.6496 H         1 UNK         0.0771 
    129 H129       28.8421   27.1027    7.6953 H         1 UNK         0.0771 
    130 H130       30.2163   26.0279    5.3997 H         1 UNK         0.2980 
    131 H131       32.9686   25.4707    6.3928 H         1 UNK         0.0545 
    132 H132       30.0206   22.7364    6.7312 H         1 UNK         0.3459 
    133 H133       29.6482   24.3628    6.1989 H         1 UNK         0.3459 
    134 H134       33.4040   24.1965    4.2495 H         1 UNK         0.0616 
    135 H135       31.9409   24.8765    3.5741 H         1 UNK         0.0616 
    136 H136       35.2244   24.9215    2.7547 H         1 UNK         0.0634 
    137 H137       35.4235   26.5132    2.0671 H         1 UNK         0.0634 
@<TRIPOS>BOND
     1    1    2 1    
     2    1   72 1    
     3    1   73 1    
     4    1   74 1    
     5    2    3 2    
     6    2    4 am   BACKBONE|DICT|INTERRES
     7    4    5 1    
     8    4   75 1    
     9    5    6 1    
    10    5   35 1    
    11    5   76 1    
    12    6    7 1    
    13    6   77 1    
    14    6   78 1    
    15    7    8 1    
    16    8    9 1    
    17    8   79 1    
    18    8   80 1    
    19    9   10 ar   
    20    9   14 ar   
    21   10   11 ar   
    22   10   81 1    
    23   11   12 ar   
    24   11   71 1    
    25   12   13 ar   
    26   12   82 1    
    27   13   14 ar   
    28   13   15 1    
    29   14   83 1    
    30   15   16 1    
    31   15   84 1    
    32   15   85 1    
    33   16   17 1    
    34   17   18 1    
    35   17   86 1    
    36   17   87 1    
    37   18   19 1    
    38   18   37 1    
    39   18   88 1    
    40   19   20 am   BACKBONE|DICT|INTERRES
    41   19   89 1    
    42   20   21 2    
    43   20   22 1    
    44   22   23 1    
    45   22   24 1    
    46   22   90 1    
    47   23   91 1    
    48   23   92 1    
    49   23   93 1    
    50   24   25 am   BACKBONE|DICT|INTERRES
    51   24   94 1    
    52   25   26 2    
    53   25   27 1    
    54   27   28 1    
    55   27   29 1    
    56   27   95 1    
    57   28   96 1    
    58   28   97 1    
    59   28   98 1    
    60   29   30 am   BACKBONE|DICT|INTERRES
    61   29   99 1    
    62   30   31 2    
    63   30   32 1    
    64   32   33 1    
    65   32   34 1    
    66   32  100 1    
    67   33  101 1    
    68   33  102 1    
    69   33  103 1    
    70   34   35 am   BACKBONE|DICT|INTERRES
    71   34  104 1    
    72   35   36 2    
    73   37   38 2    
    74   37   39 am   BACKBONE|DICT|INTERRES
    75   39   40 1    
    76   39  105 1    
    77   40   41 1    
    78   40   42 1    
    79   40  106 1    
    80   41  107 1    
    81   41  108 1    
    82   41  109 1    
    83   42   43 2    
    84   42   44 am   BACKBONE|DICT|INTERRES
    85   44   45 1    
    86   44  110 1    
    87   45   46 1    
    88   45   47 1    
    89   45  111 1    
    90   46  112 1    
    91   46  113 1    
    92   46  114 1    
    93   47   48 2    
    94   47   49 am   BACKBONE|DICT|INTERRES
    95   49   50 1    
    96   49  115 1    
    97   50   51 1    
    98   50   52 1    
    99   50  116 1    
   100   51  117 1    
   101   51  118 1    
   102   51  119 1    
   103   52   53 2    
   104   52   54 am   BACKBONE|DICT|INTERRES
   105   54   55 1    
   106   54  120 1    
   107   55   56 1    
   108   55   57 1    
   109   55  121 1    
   110   56  122 1    
   111   56  123 1    
   112   56  124 1    
   113   57   58 2    
   114   57   59 am   BACKBONE|DICT|INTERRES
   115   59   60 1    
   116   59  125 1    
   117   60   61 1    
   118   60   62 1    
   119   60  126 1    
   120   61  127 1    
   121   61  128 1    
   122   61  129 1    
   123   62   63 2    
   124   62   64 am   BACKBONE|DICT|INTERRES
   125   64   65 1    
   126   64  130 1    
   127   65   66 1    
   128   65   69 1    
   129   65  131 1    
   130   66   67 am   BACKBONE|DICT|INTERRES
   131   66   68 2    
   132   67  132 1    
   133   67  133 1    
   134   69   70 1    
   135   69  134 1    
   136   69  135 1    
   137   70   71 1    
   138   71  136 1    
   139   71  137 1    
@<TRIPOS>SUBSTRUCTURE
     1 UNK         1 GROUP             0       ****    0 ROOT    
