@<TRIPOS>MOLECULE
3R136
137   139    1
SMALL
USER_CHARGES


@<TRIPOS>ATOM
      1 CA         26.3026   19.7274    1.2041 C.3       0 UNK        -0.1979 
      2 C          26.0006   20.5448    2.4582 C.2       0 UNK         0.4864 
      3 O          25.1484   20.1407    3.2486 O.2       0 UNK        -0.5359 
      4 N          26.6718   21.6804    2.6972 N.am      1 UNK        -0.4318 
      5 CA         27.6666   22.3273    1.8308 C.3       1 UNK         0.0824 
      6 C6         28.5657   23.3045    2.6293 C.3       12 UNK        -0.0944 
      7 S7         29.4944   22.4664    3.9609 S.3       12 UNK        -0.2672 
      8 C8         30.9380   21.7873    3.0778 C.3       12 UNK         0.0333 
      9 C9         31.9275   22.8657    2.6586 C.ar      12 UNK        -0.0807 
     10 C10        32.8617   23.3584    3.5765 C.ar      12 UNK        -0.0894 
     11 C11        33.7733   24.3492    3.1981 C.ar      12 UNK        -0.0804 
     12 C12        33.7562   24.8341    1.8871 C.ar      12 UNK        -0.0824 
     13 C13        32.8392   24.3371    0.9560 C.ar      12 UNK        -0.0762 
     14 C14        31.9272   23.3531    1.3476 C.ar      12 UNK        -0.0782 
     15 C15        32.8719   24.8304   -0.4834 C.3       12 UNK         0.0230 
     16 S16        32.4069   26.5830   -0.6261 S.3       12 UNK        -0.2608 
     17 C17        30.5872   26.5185   -0.5316 C.3       12 UNK        -0.0989 
     18 CA         30.0338   27.6632    0.3535 C.3       5 UNK         0.0716 
     19 N          28.8280   28.2752   -0.2064 N.am      5 UNK        -0.4135 
     20 C          28.3157   29.4427    0.2135 C.2       4 UNK         0.5031 
     21 O          28.8518   30.1561    1.0646 O.2       4 UNK        -0.5229 
     22 CA         26.9888   29.9101   -0.4089 C.3       4 UNK         0.0329 
     23 CB         27.2563   30.9381   -1.5196 C.3       4 UNK        -0.2001 
     24 N          26.1808   28.8165   -0.9501 N.am      4 UNK        -0.4303 
     25 C          25.5521   27.8860   -0.2185 C.2       3 UNK         0.5044 
     26 O          25.5187   27.8851    1.0114 O.2       3 UNK        -0.5152 
     27 CA         24.8373   26.7611   -0.9892 C.3       3 UNK         0.0319 
     28 CB         24.3632   27.1825   -2.3989 C.3       3 UNK        -0.2001 
     29 N          25.6382   25.5340   -1.0666 N.am      3 UNK        -0.4354 
     30 C          26.8711   25.3840   -1.5703 C.2       2 UNK         0.4964 
     31 O          27.5716   26.3174   -1.9684 O.2       2 UNK        -0.5047 
     32 CA         27.3957   23.9366   -1.6659 C.3       2 UNK         0.0288 
     33 CB         28.5667   23.8054   -2.6590 C.3       2 UNK        -0.2113 
     34 N          27.8118   23.3758   -0.3783 N.am      2 UNK        -0.4145 
     35 C          26.9976   23.0310    0.6286 C.2       1 UNK         0.5006 
     36 O          25.7766   23.2130    0.6106 O.2       1 UNK        -0.5103 
     37 C          29.7742   27.2197    1.8058 C.2       5 UNK         0.5055 
     38 O          28.7018   26.6858    2.0929 O.2       5 UNK        -0.5220 
     39 N          30.7319   27.5099    2.6961 N.am      6 UNK        -0.4450 
     40 CA         30.6913   27.3726    4.1622 C.3       6 UNK         0.0367 
     41 CB         30.3920   25.9282    4.5959 C.3       6 UNK        -0.1929 
     42 C          29.7496   28.3525    4.8861 C.2       6 UNK         0.5070 
     43 O          30.0319   28.7004    6.0317 O.2       6 UNK        -0.5237 
     44 N          28.6702   28.7869    4.2258 N.am      7 UNK        -0.4739 
     45 CA         27.7259   29.7935    4.7028 C.3       7 UNK         0.0276 
     46 CB         26.3667   29.5709    4.0105 C.3       7 UNK        -0.1927 
     47 C          28.3057   31.2022    4.4881 C.2       7 UNK         0.5013 
     48 O          29.1248   31.6481    5.2915 O.2       7 UNK        -0.5193 
     49 N          27.8945   31.8732    3.4036 N.am      8 UNK        -0.4253 
     50 CA         28.3285   33.2202    3.0207 C.3       8 UNK         0.0242 
     51 CB         27.5309   33.6785    1.7894 C.3       8 UNK        -0.2000 
     52 C          29.8404   33.3357    2.7576 C.2       8 UNK         0.4948 
     53 O          30.4257   34.3739    3.0680 O.2       8 UNK        -0.5275 
     54 N          30.4478   32.2714    2.2134 N.am      9 UNK        -0.4246 
     55 CA         31.8911   32.1824    1.9747 C.3       9 UNK         0.0261 
     56 CB         32.1669   31.0552    0.9687 C.3       9 UNK        -0.1959 
     57 C          32.7157   31.9524    3.2549 C.2       9 UNK         0.5033 
     58 O          33.9226   32.1985    3.2329 O.2       9 UNK        -0.5390 
     59 N          32.0788   31.4425    4.3232 N.am      10 UNK        -0.4215 
     60 CA         32.6440   31.1504    5.6510 C.3       10 UNK         0.0240 
     61 CB         32.9330   32.4718    6.3944 C.3       10 UNK        -0.1982 
     62 C          33.8664   30.2020    5.6584 C.2       10 UNK         0.4970 
     63 O          34.6361   30.2233    6.6205 O.2       10 UNK        -0.4916 
     64 N          34.0383   29.4116    4.5877 N.am      11 UNK        -0.4279 
     65 CA         35.2327   28.5983    4.2873 C.3       11 UNK         0.1003 
     66 C          36.5253   29.4396    4.0402 C.2       11 UNK         0.5709 
     67 N          36.4274   30.7212    3.7025 N.am      11 UNK        -0.7358 
     68 O          37.6369   28.9212    4.1185 O.2       11 UNK        -0.4999 
     69 C69        35.4457   27.4159    5.2806 C.3       12 UNK        -0.0954 
     70 S70        34.0770   26.2117    5.2196 S.3       12 UNK        -0.2268 
     71 C71        34.7894   24.8858    4.1949 C.3       12 UNK         0.0203 
     72 H72        25.7171   18.8082    1.1993 H         1 UNK         0.0888 
     73 H73        26.0476   20.2837    0.3030 H         1 UNK         0.0888 
     74 H74        27.3541   19.4455    1.1630 H         1 UNK         0.0888 
     75 H75        26.4460   22.1970    3.5343 H         1 UNK         0.3017 
     76 H76        28.3130   21.5508    1.4194 H         1 UNK         0.0873 
     77 H77        27.9565   24.0874    3.0852 H         1 UNK         0.0745 
     78 H78        29.2713   23.8266    1.9828 H         1 UNK         0.0745 
     79 H79        30.6036   21.2119    2.2136 H         1 UNK         0.0705 
     80 H80        31.4403   21.0749    3.7339 H         1 UNK         0.0705 
     81 H81        32.8691   22.9816    4.5903 H         1 UNK         0.1334 
     82 H82        34.4641   25.5940    1.5850 H         1 UNK         0.1417 
     83 H83        31.2257   22.9555    0.6282 H         1 UNK         0.1562 
     84 H84        32.2274   24.2286   -1.1263 H         1 UNK         0.0748 
     85 H85        33.8841   24.7079   -0.8713 H         1 UNK         0.0748 
     86 H86        30.2460   25.5382   -0.1932 H         1 UNK         0.0940 
     87 H87        30.2263   26.6185   -1.5565 H         1 UNK         0.0940 
     88 H88        30.7714   28.4655    0.3708 H         1 UNK         0.0703 
     89 H89        28.3053   27.7152   -0.8744 H         1 UNK         0.3081 
     90 H90        26.4138   30.3996    0.3797 H         1 UNK         0.0719 
     91 H91        27.8611   31.7675   -1.1507 H         1 UNK         0.0809 
     92 H92        27.7936   30.4950   -2.3590 H         1 UNK         0.0809 
     93 H93        26.3268   31.3616   -1.9005 H         1 UNK         0.0809 
     94 H94        26.1711   28.7114   -1.9546 H         1 UNK         0.2990 
     95 H95        23.9482   26.5119   -0.4078 H         1 UNK         0.0690 
     96 H96        23.7270   26.4146   -2.8393 H         1 UNK         0.0788 
     97 H97        25.1925   27.3508   -3.0868 H         1 UNK         0.0788 
     98 H98        23.7733   28.0994   -2.3584 H         1 UNK         0.0788 
     99 H99        25.2202   24.7108   -0.6438 H         1 UNK         0.2993 
    100 H100       26.5754   23.3261   -2.0508 H         1 UNK         0.0949 
    101 H101       28.2965   24.2090   -3.6360 H         1 UNK         0.0767 
    102 H102       29.4530   24.3420   -2.3204 H         1 UNK         0.0767 
    103 H103       28.8442   22.7618   -2.8095 H         1 UNK         0.0767 
    104 H104       28.7992   23.1967   -0.2813 H         1 UNK         0.3013 
    105 H105       31.5814   27.9177    2.3349 H         1 UNK         0.3121 
    106 H106       31.6973   27.6170    4.5003 H         1 UNK         0.0774 
    107 H107       30.6085   25.7868    5.6552 H         1 UNK         0.0815 
    108 H108       29.3463   25.6631    4.4407 H         1 UNK         0.0815 
    109 H109       31.0006   25.2199    4.0409 H         1 UNK         0.0815 
    110 H110       28.5004   28.3993    3.3049 H         1 UNK         0.2987 
    111 H111       27.5797   29.6663    5.7778 H         1 UNK         0.0949 
    112 H112       25.9447   28.6036    4.2845 H         1 UNK         0.0806 
    113 H113       25.6419   30.3305    4.3070 H         1 UNK         0.0806 
    114 H114       26.4473   29.5900    2.9234 H         1 UNK         0.0806 
    115 H115       27.2639   31.4058    2.7695 H         1 UNK         0.3010 
    116 H116       28.0912   33.8882    3.8514 H         1 UNK         0.0829 
    117 H117       26.4597   33.6932    1.9914 H         1 UNK         0.0813 
    118 H118       27.8170   34.6885    1.4925 H         1 UNK         0.0813 
    119 H119       27.7034   33.0259    0.9333 H         1 UNK         0.0813 
    120 H120       29.8762   31.4777    1.9271 H         1 UNK         0.3038 
    121 H121       32.2240   33.1236    1.5319 H         1 UNK         0.0769 
    122 H122       33.2168   31.0452    0.6724 H         1 UNK         0.0811 
    123 H123       31.5738   31.1717    0.0612 H         1 UNK         0.0811 
    124 H124       31.9422   30.0808    1.3982 H         1 UNK         0.0811 
    125 H125       31.0746   31.3231    4.2583 H         1 UNK         0.3204 
    126 H126       31.8610   30.6312    6.2041 H         1 UNK         0.0748 
    127 H127       33.2131   32.2895    7.4327 H         1 UNK         0.0771 
    128 H128       33.7483   33.0259    5.9279 H         1 UNK         0.0771 
    129 H129       32.0539   33.1165    6.4083 H         1 UNK         0.0771 
    130 H130       33.3709   29.4930    3.8386 H         1 UNK         0.2980 
    131 H131       35.0323   28.1529    3.3122 H         1 UNK         0.0545 
    132 H132       37.2694   31.2479    3.5348 H         1 UNK         0.3459 
    133 H133       35.5234   31.1751    3.6052 H         1 UNK         0.3459 
    134 H134       36.3781   26.8883    5.0752 H         1 UNK         0.0616 
    135 H135       35.5393   27.7806    6.3037 H         1 UNK         0.0616 
    136 H136       35.6663   25.2493    3.6576 H         1 UNK         0.0634 
    137 H137       35.1408   24.0829    4.8445 H         1 UNK         0.0634 
@<TRIPOS>BOND
     1    1    2 1    
     2    1   72 1    
     3    1   73 1    
     4    1   74 1    
     5    2    3 2    
     6    2    4 am   BACKBONE|DICT|INTERRES
     7    4    5 1    
     8    4   75 1    
     9    5    6 1    
    10    5   35 1    
    11    5   76 1    
    12    6    7 1    
    13    6   77 1    
    14    6   78 1    
    15    7    8 1    
    16    8    9 1    
    17    8   79 1    
    18    8   80 1    
    19    9   10 ar   
    20    9   14 ar   
    21   10   11 ar   
    22   10   81 1    
    23   11   12 ar   
    24   11   71 1    
    25   12   13 ar   
    26   12   82 1    
    27   13   14 ar   
    28   13   15 1    
    29   14   83 1    
    30   15   16 1    
    31   15   84 1    
    32   15   85 1    
    33   16   17 1    
    34   17   18 1    
    35   17   86 1    
    36   17   87 1    
    37   18   19 1    
    38   18   37 1    
    39   18   88 1    
    40   19   20 am   BACKBONE|DICT|INTERRES
    41   19   89 1    
    42   20   21 2    
    43   20   22 1    
    44   22   23 1    
    45   22   24 1    
    46   22   90 1    
    47   23   91 1    
    48   23   92 1    
    49   23   93 1    
    50   24   25 am   BACKBONE|DICT|INTERRES
    51   24   94 1    
    52   25   26 2    
    53   25   27 1    
    54   27   28 1    
    55   27   29 1    
    56   27   95 1    
    57   28   96 1    
    58   28   97 1    
    59   28   98 1    
    60   29   30 am   BACKBONE|DICT|INTERRES
    61   29   99 1    
    62   30   31 2    
    63   30   32 1    
    64   32   33 1    
    65   32   34 1    
    66   32  100 1    
    67   33  101 1    
    68   33  102 1    
    69   33  103 1    
    70   34   35 am   BACKBONE|DICT|INTERRES
    71   34  104 1    
    72   35   36 2    
    73   37   38 2    
    74   37   39 am   BACKBONE|DICT|INTERRES
    75   39   40 1    
    76   39  105 1    
    77   40   41 1    
    78   40   42 1    
    79   40  106 1    
    80   41  107 1    
    81   41  108 1    
    82   41  109 1    
    83   42   43 2    
    84   42   44 am   BACKBONE|DICT|INTERRES
    85   44   45 1    
    86   44  110 1    
    87   45   46 1    
    88   45   47 1    
    89   45  111 1    
    90   46  112 1    
    91   46  113 1    
    92   46  114 1    
    93   47   48 2    
    94   47   49 am   BACKBONE|DICT|INTERRES
    95   49   50 1    
    96   49  115 1    
    97   50   51 1    
    98   50   52 1    
    99   50  116 1    
   100   51  117 1    
   101   51  118 1    
   102   51  119 1    
   103   52   53 2    
   104   52   54 am   BACKBONE|DICT|INTERRES
   105   54   55 1    
   106   54  120 1    
   107   55   56 1    
   108   55   57 1    
   109   55  121 1    
   110   56  122 1    
   111   56  123 1    
   112   56  124 1    
   113   57   58 2    
   114   57   59 am   BACKBONE|DICT|INTERRES
   115   59   60 1    
   116   59  125 1    
   117   60   61 1    
   118   60   62 1    
   119   60  126 1    
   120   61  127 1    
   121   61  128 1    
   122   61  129 1    
   123   62   63 2    
   124   62   64 am   BACKBONE|DICT|INTERRES
   125   64   65 1    
   126   64  130 1    
   127   65   66 1    
   128   65   69 1    
   129   65  131 1    
   130   66   67 am   BACKBONE|DICT|INTERRES
   131   66   68 2    
   132   67  132 1    
   133   67  133 1    
   134   69   70 1    
   135   69  134 1    
   136   69  135 1    
   137   70   71 1    
   138   71  136 1    
   139   71  137 1    
@<TRIPOS>SUBSTRUCTURE
     1 UNK         1 GROUP             0       ****    0 ROOT    
