@<TRIPOS>MOLECULE
3R207
157   159    1
SMALL
USER_CHARGES


@<TRIPOS>ATOM
      1 CA        -51.1235  -33.5597    4.5891 C.3       0 UNK        -0.1975 
      2 C         -50.5115  -32.2075    4.2537 C.2       0 UNK         0.4852 
      3 O         -49.3661  -32.1510    3.8051 O.2       0 UNK        -0.5216 
      4 N         -51.2698  -31.1220    4.4629 N.am      1 UNK        -0.4461 
      5 CA        -50.8450  -29.7358    4.2339 C.3       1 UNK         0.0864 
      6 C6        -52.0583  -28.7753    4.2917 C.3       14 UNK        -0.0898 
      7 S7        -51.7103  -27.1067    3.6397 S.3       14 UNK        -0.2598 
      8 C8        -53.1561  -26.1750    4.2446 C.3       14 UNK         0.0286 
      9 C9        -53.0819  -25.9190    5.7436 C.ar      14 UNK        -0.0844 
     10 C10       -52.3348  -24.8444    6.2374 C.ar      14 UNK        -0.0881 
     11 C11       -52.2431  -24.6192    7.6143 C.ar      14 UNK        -0.0643 
     12 C12       -52.9112  -25.4736    8.4963 C.ar      14 UNK        -0.0930 
     13 C13       -53.6499  -26.5573    8.0163 C.ar      14 UNK        -0.0827 
     14 C14       -53.7470  -26.7640    6.6379 C.ar      14 UNK        -0.1249 
     15 C15       -54.3086  -27.5258    8.9861 C.3       14 UNK         0.0141 
     16 S16       -53.1103  -28.7760    9.5464 S.3       14 UNK        -0.2313 
     17 C17       -54.1834  -29.9479   10.4406 C.3       14 UNK        -0.0915 
     18 CA        -54.1537  -29.7784   11.9897 C.3       13 UNK         0.0968 
     19 C         -55.1800  -30.7093   12.7088 C.2       13 UNK         0.5732 
     20 N         -54.8930  -31.2430   13.8917 N.am      13 UNK        -0.7310 
     21 O         -56.2759  -30.9344   12.2000 O.2       13 UNK        -0.5035 
     22 N         -52.8051  -29.8117   12.5830 N.am      13 UNK        -0.4233 
     23 C         -51.9282  -30.8253   12.5363 C.2       13 UNK         0.4989 
     24 O         -52.0646  -31.8305   11.8388 O.2       13 UNK        -0.4996 
     25 CA        -50.7086  -30.7351   13.4770 C.3       12 UNK         0.0216 
     26 CB        -49.4096  -30.4268   12.7129 C.3       12 UNK        -0.1964 
     27 N         -50.8831  -29.7819   14.5820 N.am      12 UNK        -0.4276 
     28 C         -51.7163  -29.9832   15.6134 C.2       12 UNK         0.5020 
     29 O         -52.4196  -30.9872   15.7363 O.2       12 UNK        -0.5489 
     30 CA        -51.8171  -28.8578   16.6539 C.3       11 UNK         0.0294 
     31 CB        -50.5587  -28.8097   17.5357 C.3       11 UNK        -0.2019 
     32 N         -52.0719  -27.5363   16.0684 N.am      11 UNK        -0.4493 
     33 C         -53.1834  -27.2039   15.3897 C.2       11 UNK         0.4932 
     34 O         -54.0474  -28.0215   15.0723 O.2       11 UNK        -0.5029 
     35 CA        -53.3729  -25.7301   14.9717 C.3       10 UNK         0.0280 
     36 CB        -54.8527  -25.2922   15.0035 C.3       10 UNK        -0.1976 
     37 N         -52.5230  -24.7801   15.6992 N.am      10 UNK        -0.4242 
     38 C         -52.5445  -24.4921   17.0086 C.2       10 UNK         0.5072 
     39 O         -53.3654  -24.9676   17.7957 O.2       10 UNK        -0.5224 
     40 CA        -51.4616  -23.5209   17.5343 C.3       9 UNK         0.0343 
     41 CB        -51.2218  -23.6906   19.0494 C.3       9 UNK        -0.2003 
     42 N         -50.1661  -23.5553   16.8361 N.am      9 UNK        -0.4272 
     43 C         -49.4060  -24.6233   16.5533 C.2       9 UNK         0.4988 
     44 O         -49.7879  -25.7871   16.6885 O.2       9 UNK        -0.5108 
     45 CA        -47.9732  -24.3423   16.0512 C.3       8 UNK         0.0248 
     46 CB        -47.2370  -25.6263   15.6221 C.3       8 UNK        -0.2001 
     47 N         -47.9038  -23.3709   14.9550 N.am      8 UNK        -0.4140 
     48 C         -48.0072  -22.0391   15.0688 C.2       8 UNK         0.5028 
     49 O         -48.2615  -21.4653   16.1286 O.2       8 UNK        -0.5428 
     50 CA        -47.8251  -21.2145   13.7845 C.3       7 UNK         0.0264 
     51 CB        -46.3555  -21.2133   13.3300 C.3       7 UNK        -0.1988 
     52 N         -48.6734  -21.7476   12.7193 N.am      7 UNK        -0.4454 
     53 C         -49.9134  -21.3090   12.4516 C.2       7 UNK         0.5027 
     54 O         -50.3944  -20.2886   12.9465 O.2       7 UNK        -0.5083 
     55 CA        -50.7929  -22.1622   11.5083 C.3       6 UNK         0.0844 
     56 C56       -50.9238  -21.5249   10.1024 C.3       14 UNK        -0.0967 
     57 S57       -52.2779  -22.2894    9.1418 S.3       14 UNK        -0.2604 
     58 C58       -51.3564  -23.5111    8.1600 C.3       14 UNK         0.0134 
     59 N         -50.3511  -23.5589   11.4411 N.am      6 UNK        -0.4116 
     60 C         -50.4220  -24.4280   12.4566 C.2       5 UNK         0.5034 
     61 O         -50.8788  -24.1478   13.5620 O.2       5 UNK        -0.5045 
     62 CA        -49.8421  -25.8303   12.2192 C.3       5 UNK         0.0224 
     63 CB        -50.9442  -26.7690   11.7080 C.3       5 UNK        -0.1978 
     64 N         -48.7062  -25.8521   11.2883 N.am      5 UNK        -0.4737 
     65 C         -47.5504  -25.1921   11.4717 C.2       4 UNK         0.5027 
     66 O         -47.3417  -24.4583   12.4372 O.2       4 UNK        -0.5211 
     67 CA        -46.4494  -25.3386   10.4055 C.3       4 UNK         0.0297 
     68 CB        -45.4284  -26.3991   10.8448 C.3       4 UNK        -0.1993 
     69 N         -46.9589  -25.6784    9.0762 N.am      4 UNK        -0.4486 
     70 C         -47.7455  -24.8907    8.3305 C.2       3 UNK         0.4961 
     71 O         -48.0392  -23.7358    8.6410 O.2       3 UNK        -0.5105 
     72 CA        -48.3376  -25.4983    7.0424 C.3       3 UNK         0.0299 
     73 CB        -47.5646  -25.0029    5.8107 C.3       3 UNK        -0.1972 
     74 N         -48.4086  -26.9654    7.0064 N.am      3 UNK        -0.4305 
     75 C         -49.0093  -27.7595    7.9037 C.2       2 UNK         0.5006 
     76 O         -49.5327  -27.3453    8.9373 O.2       2 UNK        -0.5106 
     77 CA        -48.9986  -29.2685    7.5946 C.3       2 UNK         0.0296 
     78 CB        -49.3468  -30.1213    8.8295 C.3       2 UNK        -0.2002 
     79 N         -49.9174  -29.6040    6.5057 N.am      2 UNK        -0.4032 
     80 C         -49.7250  -29.3135    5.2099 C.2       1 UNK         0.5000 
     81 O         -48.7088  -28.7630    4.7775 O.2       1 UNK        -0.5238 
     82 H82       -51.1507  -34.1898    3.7004 H         1 UNK         0.0889 
     83 H83       -52.1408  -33.4655    4.9687 H         1 UNK         0.0889 
     84 H84       -50.5246  -34.0645    5.3467 H         1 UNK         0.0889 
     85 H85       -52.2079  -31.2421    4.8180 H         1 UNK         0.3028 
     86 H86       -50.4287  -29.6921    3.2248 H         1 UNK         0.0864 
     87 H87       -52.4289  -28.7046    5.3139 H         1 UNK         0.0720 
     88 H88       -52.8809  -29.1811    3.7005 H         1 UNK         0.0720 
     89 H89       -54.0707  -26.7129    3.9900 H         1 UNK         0.0814 
     90 H90       -53.2079  -25.2228    3.7146 H         1 UNK         0.0814 
     91 H91       -51.8052  -24.2005    5.5485 H         1 UNK         0.1469 
     92 H92       -52.8362  -25.3049    9.5605 H         1 UNK         0.1381 
     93 H93       -54.3188  -27.6016    6.2624 H         1 UNK         0.1206 
     94 H94       -55.1566  -28.0164    8.5061 H         1 UNK         0.0813 
     95 H95       -54.7045  -26.9881    9.8488 H         1 UNK         0.0813 
     96 H96       -55.2014  -29.8348   10.0648 H         1 UNK         0.0638 
     97 H97       -53.8810  -30.9579   10.1615 H         1 UNK         0.0638 
     98 H98       -54.5195  -28.7727   12.1991 H         1 UNK         0.0568 
     99 H99       -55.5779  -31.8299   14.3398 H         1 UNK         0.3450 
    100 H100      -54.0154  -31.0511   14.3594 H         1 UNK         0.3450 
    101 H101      -52.6156  -29.0639   13.2321 H         1 UNK         0.2987 
    102 H102      -50.5927  -31.7284   13.9166 H         1 UNK         0.0766 
    103 H103      -49.3823  -29.4108   12.3267 H         1 UNK         0.0798 
    104 H104      -49.2866  -31.1021   11.8649 H         1 UNK         0.0798 
    105 H105      -48.5379  -30.5584   13.3542 H         1 UNK         0.0798 
    106 H106      -50.3400  -28.9310   14.5566 H         1 UNK         0.3198 
    107 H107      -52.6660  -29.0909   17.3004 H         1 UNK         0.0843 
    108 H108      -50.6656  -28.0775   18.3365 H         1 UNK         0.0831 
    109 H109      -49.6688  -28.5464   16.9629 H         1 UNK         0.0831 
    110 H110      -50.3720  -29.7770   18.0042 H         1 UNK         0.0831 
    111 H111      -51.3873  -26.8117   16.2751 H         1 UNK         0.3133 
    112 H112      -53.0530  -25.6737   13.9323 H         1 UNK         0.0566 
    113 H113      -55.4550  -25.8963   14.3239 H         1 UNK         0.0814 
    114 H114      -55.2863  -25.3974   15.9983 H         1 UNK         0.0814 
    115 H115      -54.9658  -24.2530   14.6951 H         1 UNK         0.0814 
    116 H116      -51.7912  -24.3605   15.1265 H         1 UNK         0.3091 
    117 H117      -51.8616  -22.5189   17.3735 H         1 UNK         0.0702 
    118 H118      -50.4914  -22.9709   19.4192 H         1 UNK         0.0785 
    119 H119      -50.8566  -24.6909   19.2860 H         1 UNK         0.0785 
    120 H120      -52.1400  -23.5341   19.6170 H         1 UNK         0.0785 
    121 H121      -49.7409  -22.6503   16.6535 H         1 UNK         0.2998 
    122 H122      -47.4281  -23.9270   16.9012 H         1 UNK         0.0697 
    123 H123      -46.2094  -25.4145   15.3264 H         1 UNK         0.0825 
    124 H124      -47.1947  -26.3476   16.4394 H         1 UNK         0.0825 
    125 H125      -47.7310  -26.1137   14.7820 H         1 UNK         0.0825 
    126 H126      -47.7057  -23.7612   14.0345 H         1 UNK         0.3029 
    127 H127      -48.1048  -20.1821   14.0065 H         1 UNK         0.0897 
    128 H128      -46.2174  -20.5894   12.4468 H         1 UNK         0.0792 
    129 H129      -45.7076  -20.8149   14.1119 H         1 UNK         0.0792 
    130 H130      -45.9968  -22.2145   13.0892 H         1 UNK         0.0792 
    131 H131      -48.3619  -22.6131   12.2945 H         1 UNK         0.3086 
    132 H132      -51.7879  -22.1658   11.9596 H         1 UNK         0.0583 
    133 H133      -51.1528  -20.4605   10.1857 H         1 UNK         0.1020 
    134 H134      -49.9831  -21.5881    9.5509 H         1 UNK         0.1020 
    135 H135      -50.8202  -22.9985    7.3598 H         1 UNK         0.0694 
    136 H136      -50.6041  -23.9831    8.7876 H         1 UNK         0.0694 
    137 H137      -49.9243  -23.8621   10.5780 H         1 UNK         0.2989 
    138 H138      -49.4895  -26.2049   13.1816 H         1 UNK         0.1055 
    139 H139      -51.3559  -26.4181   10.7641 H         1 UNK         0.0806 
    140 H140      -51.7674  -26.8478   12.4163 H         1 UNK         0.0806 
    141 H141      -50.5733  -27.7745   11.5278 H         1 UNK         0.0806 
    142 H142      -48.8312  -26.4085   10.4444 H         1 UNK         0.3061 
    143 H143      -45.9372  -24.3769   10.3323 H         1 UNK         0.0734 
    144 H144      -44.5933  -26.4614   10.1467 H         1 UNK         0.0832 
    145 H145      -45.0119  -26.1562   11.8236 H         1 UNK         0.0832 
    146 H146      -45.8803  -27.3891   10.9206 H         1 UNK         0.0832 
    147 H147      -46.7736  -26.6119    8.7403 H         1 UNK         0.3156 
    148 H148      -49.3629  -25.1380    6.9602 H         1 UNK         0.0589 
    149 H149      -46.5368  -25.3678    5.8064 H         1 UNK         0.0808 
    150 H150      -48.0417  -25.3285    4.8858 H         1 UNK         0.0808 
    151 H151      -47.5248  -23.9128    5.7856 H         1 UNK         0.0808 
    152 H152      -48.0836  -27.4128    6.1547 H         1 UNK         0.3098 
    153 H153      -47.9853  -29.5347    7.2862 H         1 UNK         0.0720 
    154 H154      -48.6644  -29.9072    9.6529 H         1 UNK         0.0791 
    155 H155      -50.3577  -29.9255    9.1884 H         1 UNK         0.0791 
    156 H156      -49.2684  -31.1868    8.6134 H         1 UNK         0.0791 
    157 H157      -50.7859  -30.0426    6.7737 H         1 UNK         0.3028 
@<TRIPOS>BOND
     1    1    2 1    
     2    1   82 1    
     3    1   83 1    
     4    1   84 1    
     5    2    3 2    
     6    2    4 am   BACKBONE|DICT|INTERRES
     7    4    5 1    
     8    4   85 1    
     9    5    6 1    
    10    5   80 1    
    11    5   86 1    
    12    6    7 1    
    13    6   87 1    
    14    6   88 1    
    15    7    8 1    
    16    8    9 1    
    17    8   89 1    
    18    8   90 1    
    19    9   10 ar   
    20    9   14 ar   
    21   10   11 ar   
    22   10   91 1    
    23   11   12 ar   
    24   11   58 1    
    25   12   13 ar   
    26   12   92 1    
    27   13   14 ar   
    28   13   15 1    
    29   14   93 1    
    30   15   16 1    
    31   15   94 1    
    32   15   95 1    
    33   16   17 1    
    34   17   18 1    
    35   17   96 1    
    36   17   97 1    
    37   18   19 1    
    38   18   22 1    
    39   18   98 1    
    40   19   20 am   BACKBONE|DICT|INTERRES
    41   19   21 2    
    42   20   99 1    
    43   20  100 1    
    44   22   23 am   BACKBONE|DICT|INTERRES
    45   22  101 1    
    46   23   24 2    
    47   23   25 1    
    48   25   26 1    
    49   25   27 1    
    50   25  102 1    
    51   26  103 1    
    52   26  104 1    
    53   26  105 1    
    54   27   28 am   BACKBONE|DICT|INTERRES
    55   27  106 1    
    56   28   29 2    
    57   28   30 1    
    58   30   31 1    
    59   30   32 1    
    60   30  107 1    
    61   31  108 1    
    62   31  109 1    
    63   31  110 1    
    64   32   33 am   BACKBONE|DICT|INTERRES
    65   32  111 1    
    66   33   34 2    
    67   33   35 1    
    68   35   36 1    
    69   35   37 1    
    70   35  112 1    
    71   36  113 1    
    72   36  114 1    
    73   36  115 1    
    74   37   38 am   BACKBONE|DICT|INTERRES
    75   37  116 1    
    76   38   39 2    
    77   38   40 1    
    78   40   41 1    
    79   40   42 1    
    80   40  117 1    
    81   41  118 1    
    82   41  119 1    
    83   41  120 1    
    84   42   43 am   BACKBONE|DICT|INTERRES
    85   42  121 1    
    86   43   44 2    
    87   43   45 1    
    88   45   46 1    
    89   45   47 1    
    90   45  122 1    
    91   46  123 1    
    92   46  124 1    
    93   46  125 1    
    94   47   48 am   BACKBONE|DICT|INTERRES
    95   47  126 1    
    96   48   49 2    
    97   48   50 1    
    98   50   51 1    
    99   50   52 1    
   100   50  127 1    
   101   51  128 1    
   102   51  129 1    
   103   51  130 1    
   104   52   53 am   BACKBONE|DICT|INTERRES
   105   52  131 1    
   106   53   54 2    
   107   53   55 1    
   108   55   56 1    
   109   55   59 1    
   110   55  132 1    
   111   56   57 1    
   112   56  133 1    
   113   56  134 1    
   114   57   58 1    
   115   58  135 1    
   116   58  136 1    
   117   59   60 am   BACKBONE|DICT|INTERRES
   118   59  137 1    
   119   60   61 2    
   120   60   62 1    
   121   62   63 1    
   122   62   64 1    
   123   62  138 1    
   124   63  139 1    
   125   63  140 1    
   126   63  141 1    
   127   64   65 am   BACKBONE|DICT|INTERRES
   128   64  142 1    
   129   65   66 2    
   130   65   67 1    
   131   67   68 1    
   132   67   69 1    
   133   67  143 1    
   134   68  144 1    
   135   68  145 1    
   136   68  146 1    
   137   69   70 am   BACKBONE|DICT|INTERRES
   138   69  147 1    
   139   70   71 2    
   140   70   72 1    
   141   72   73 1    
   142   72   74 1    
   143   72  148 1    
   144   73  149 1    
   145   73  150 1    
   146   73  151 1    
   147   74   75 am   BACKBONE|DICT|INTERRES
   148   74  152 1    
   149   75   76 2    
   150   75   77 1    
   151   77   78 1    
   152   77   79 1    
   153   77  153 1    
   154   78  154 1    
   155   78  155 1    
   156   78  156 1    
   157   79   80 am   BACKBONE|DICT|INTERRES
   158   79  157 1    
   159   80   81 2    
@<TRIPOS>SUBSTRUCTURE
     1 UNK         1 GROUP             0       ****    0 ROOT    
