@<TRIPOS>MOLECULE
3R207
157   159    1
SMALL
USER_CHARGES


@<TRIPOS>ATOM
      1 CA        -47.2985  -32.4047    4.7094 C.3       0 UNK        -0.1975 
      2 C         -47.7382  -31.0309    4.2255 C.2       0 UNK         0.4852 
      3 O         -47.1156  -30.4718    3.3219 O.2       0 UNK        -0.5216 
      4 N         -48.8063  -30.4834    4.8213 N.am      1 UNK        -0.4461 
      5 CA        -49.3756  -29.1716    4.4829 C.3       1 UNK         0.0864 
      6 C6        -50.7972  -28.9875    5.0687 C.3       14 UNK        -0.0898 
      7 S7        -52.0045  -30.2108    4.4496 S.3       14 UNK        -0.2598 
      8 C8        -52.2194  -31.3443    5.8650 C.3       14 UNK         0.0286 
      9 C9        -52.6575  -30.6270    7.1356 C.ar      14 UNK        -0.0844 
     10 C10       -51.7899  -30.5441    8.2289 C.ar      14 UNK        -0.0881 
     11 C11       -52.1689  -29.8651    9.3902 C.ar      14 UNK        -0.0643 
     12 C12       -53.4329  -29.2726    9.4579 C.ar      14 UNK        -0.0930 
     13 C13       -54.3157  -29.3585    8.3742 C.ar      14 UNK        -0.0827 
     14 C14       -53.9241  -30.0413    7.2185 C.ar      14 UNK        -0.1249 
     15 C15       -55.6815  -28.6936    8.4438 C.3       14 UNK         0.0141 
     16 S16       -56.8290  -29.6413    9.4935 S.3       14 UNK        -0.2313 
     17 C17       -58.0391  -28.3458    9.9454 C.3       14 UNK        -0.0915 
     18 CA        -57.7633  -27.6985   11.3314 C.3       13 UNK         0.0968 
     19 C         -58.1577  -28.6381   12.5090 C.2       13 UNK         0.5732 
     20 N         -57.2243  -29.1314   13.3152 N.am      13 UNK        -0.7310 
     21 O         -59.3402  -28.9122   12.7012 O.2       13 UNK        -0.5035 
     22 N         -56.3919  -27.1823   11.3992 N.am      13 UNK        -0.4233 
     23 C         -55.9481  -26.2282   12.2201 C.2       13 UNK         0.4989 
     24 O         -56.6598  -25.5766   12.9864 O.2       13 UNK        -0.4996 
     25 CA        -54.4292  -25.9872   12.1851 C.3       12 UNK         0.0216 
     26 CB        -54.0973  -24.4920   12.0496 C.3       12 UNK        -0.1964 
     27 N         -53.7636  -26.5358   13.3682 N.am      12 UNK        -0.4276 
     28 C         -53.7800  -27.8211   13.7541 C.2       12 UNK         0.5020 
     29 O         -54.3410  -28.7127   13.1154 O.2       12 UNK        -0.5489 
     30 CA        -53.0379  -28.1903   15.0507 C.3       11 UNK         0.0294 
     31 CB        -51.8733  -29.1473   14.7418 C.3       11 UNK        -0.2019 
     32 N         -52.4985  -27.0129   15.7312 N.am      11 UNK        -0.4493 
     33 C         -53.0036  -26.4216   16.8203 C.2       11 UNK         0.4932 
     34 O         -54.0111  -26.8161   17.4092 O.2       11 UNK        -0.5029 
     35 CA        -52.2513  -25.1678   17.3176 C.3       10 UNK         0.0280 
     36 CB        -52.5719  -24.8076   18.7838 C.3       10 UNK        -0.1976 
     37 N         -50.8014  -25.2470   17.0900 N.am      10 UNK        -0.4242 
     38 C         -49.9435  -26.1411   17.6090 C.2       10 UNK         0.5072 
     39 O         -50.2540  -26.9720   18.4639 O.2       10 UNK        -0.5224 
     40 CA        -48.5006  -26.1536   17.0657 C.3       9 UNK         0.0343 
     41 CB        -48.2538  -27.4406   16.2595 C.3       9 UNK        -0.2003 
     42 N         -48.1679  -25.0033   16.2217 N.am      9 UNK        -0.4272 
     43 C         -47.9115  -23.7670   16.6697 C.2       9 UNK         0.4988 
     44 O         -47.8764  -23.4641   17.8627 O.2       9 UNK        -0.5108 
     45 CA        -47.6880  -22.6761   15.6054 C.3       8 UNK         0.0248 
     46 CB        -46.2237  -22.6649   15.1392 C.3       8 UNK        -0.2001 
     47 N         -48.5780  -22.8011   14.4443 N.am      8 UNK        -0.4140 
     48 C         -49.9168  -22.7295   14.5047 C.2       8 UNK         0.5028 
     49 O         -50.5466  -22.5321   15.5439 O.2       8 UNK        -0.5428 
     50 CA        -50.6942  -22.9767   13.2025 C.3       7 UNK         0.0264 
     51 CB        -50.6496  -21.7441   12.2863 C.3       7 UNK        -0.1988 
     52 N         -50.2258  -24.1609   12.4778 N.am      7 UNK        -0.4454 
     53 C         -50.2752  -25.4112   12.9598 C.2       7 UNK         0.5027 
     54 O         -50.7821  -25.6971   14.0436 O.2       7 UNK        -0.5083 
     55 CA        -49.6116  -26.5284   12.1319 C.3       6 UNK         0.0844 
     56 C56       -50.5573  -27.0526   11.0248 C.3       14 UNK        -0.0967 
     57 S57       -49.8885  -28.5674   10.2578 S.3       14 UNK        -0.2604 
     58 C58       -51.2051  -29.7876   10.5648 C.3       14 UNK         0.0134 
     59 N         -48.3033  -26.1137   11.6162 N.am      6 UNK        -0.4116 
     60 C         -47.2604  -25.7577   12.3805 C.2       5 UNK         0.5034 
     61 O         -47.2609  -25.8005   13.6098 O.2       5 UNK        -0.5045 
     62 CA        -46.0303  -25.1969   11.6553 C.3       5 UNK         0.0224 
     63 CB        -45.1392  -26.3282   11.1181 C.3       5 UNK        -0.1978 
     64 N         -46.4172  -24.2943   10.5693 N.am      5 UNK        -0.4737 
     65 C         -46.9397  -23.0747   10.7614 C.2       4 UNK         0.5027 
     66 O         -47.1006  -22.5691   11.8724 O.2       4 UNK        -0.5211 
     67 CA        -47.3933  -22.3069    9.5079 C.3       4 UNK         0.0297 
     68 CB        -46.2066  -21.5709    8.8666 C.3       4 UNK        -0.1993 
     69 N         -48.0367  -23.1685    8.5116 N.am      4 UNK        -0.4486 
     70 C         -49.2069  -23.7942    8.7001 C.2       3 UNK         0.4961 
     71 O         -49.8830  -23.6872    9.7216 O.2       3 UNK        -0.5105 
     72 CA        -49.6895  -24.7344    7.5833 C.3       3 UNK         0.0299 
     73 CB        -50.4710  -23.9503    6.5181 C.3       3 UNK        -0.1972 
     74 N         -48.6324  -25.5184    6.9361 N.am      3 UNK        -0.4305 
     75 C         -47.7426  -26.3071    7.5544 C.2       2 UNK         0.5006 
     76 O         -47.6286  -26.3810    8.7783 O.2       2 UNK        -0.5106 
     77 CA        -46.8596  -27.1795    6.6425 C.3       2 UNK         0.0296 
     78 CB        -45.7136  -27.8633    7.4115 C.3       2 UNK        -0.2002 
     79 N         -47.6659  -28.2060    5.9786 N.am      2 UNK        -0.4032 
     80 C         -48.4830  -27.9961    4.9354 C.2       1 UNK         0.5000 
     81 O         -48.5776  -26.9092    4.3600 O.2       1 UNK        -0.5238 
     82 H82       -47.9387  -32.7819    5.5067 H         1 UNK         0.0889 
     83 H83       -46.2772  -32.3602    5.0869 H         1 UNK         0.0889 
     84 H84       -47.3268  -33.1184    3.8865 H         1 UNK         0.0889 
     85 H85       -49.2889  -30.9978    5.5427 H         1 UNK         0.3028 
     86 H86       -49.4480  -29.1108    3.3946 H         1 UNK         0.0864 
     87 H87       -50.7654  -28.9994    6.1583 H         1 UNK         0.0720 
     88 H88       -51.1895  -28.0043    4.8002 H         1 UNK         0.0720 
     89 H89       -52.9695  -32.0920    5.6033 H         1 UNK         0.0814 
     90 H90       -51.2917  -31.8939    6.0278 H         1 UNK         0.0814 
     91 H91       -50.8089  -30.9960    8.1767 H         1 UNK         0.1469 
     92 H92       -53.7302  -28.7544   10.3584 H         1 UNK         0.1381 
     93 H93       -54.5968  -30.1050    6.3739 H         1 UNK         0.1206 
     94 H94       -55.5620  -27.6779    8.8213 H         1 UNK         0.0813 
     95 H95       -56.1157  -28.5940    7.4476 H         1 UNK         0.0813 
     96 H96       -59.0398  -28.7807    9.9134 H         1 UNK         0.0638 
     97 H97       -58.0368  -27.5744    9.1738 H         1 UNK         0.0638 
     98 H98       -58.4312  -26.8392   11.4163 H         1 UNK         0.0568 
     99 H99       -57.5002  -29.7343   14.0730 H         1 UNK         0.3450 
    100 H100      -56.2393  -28.9399   13.1548 H         1 UNK         0.3450 
    101 H101      -55.7182  -27.7210   10.8779 H         1 UNK         0.2987 
    102 H102      -54.0169  -26.4924   11.3096 H         1 UNK         0.0766 
    103 H103      -53.0389  -24.3408   11.8420 H         1 UNK         0.0798 
    104 H104      -54.3523  -23.9343   12.9516 H         1 UNK         0.0798 
    105 H105      -54.6489  -24.0426   11.2226 H         1 UNK         0.0798 
    106 H106      -53.2779  -25.8789   13.9610 H         1 UNK         0.3198 
    107 H107      -53.7491  -28.7066   15.6986 H         1 UNK         0.0843 
    108 H108      -52.2325  -30.0619   14.2680 H         1 UNK         0.0831 
    109 H109      -51.3491  -29.4390   15.6521 H         1 UNK         0.0831 
    110 H110      -51.1458  -28.6946   14.0674 H         1 UNK         0.0831 
    111 H111      -51.6956  -26.5728   15.2804 H         1 UNK         0.3133 
    112 H112      -52.6019  -24.3429   16.6957 H         1 UNK         0.0566 
    113 H113      -52.0283  -23.9176   19.1007 H         1 UNK         0.0814 
    114 H114      -53.6349  -24.5994   18.9108 H         1 UNK         0.0814 
    115 H115      -52.3177  -25.6183   19.4671 H         1 UNK         0.0814 
    116 H116      -50.4425  -24.6011   16.3963 H         1 UNK         0.3091 
    117 H117      -47.8288  -26.1553   17.9264 H         1 UNK         0.0702 
    118 H118      -47.2206  -27.5025   15.9173 H         1 UNK         0.0785 
    119 H119      -48.9001  -27.4942   15.3824 H         1 UNK         0.0785 
    120 H120      -48.4483  -28.3280   16.8632 H         1 UNK         0.0785 
    121 H121      -48.0938  -25.1828   15.2233 H         1 UNK         0.2998 
    122 H122      -47.9005  -21.7133   16.0746 H         1 UNK         0.0697 
    123 H123      -45.9508  -23.5963   14.6428 H         1 UNK         0.0825 
    124 H124      -45.5457  -22.5342   15.9837 H         1 UNK         0.0825 
    125 H125      -46.0352  -21.8477   14.4426 H         1 UNK         0.0825 
    126 H126      -48.1337  -22.9266   13.5386 H         1 UNK         0.3029 
    127 H127      -51.7357  -23.1495   13.4802 H         1 UNK         0.0897 
    128 H128      -51.2816  -21.8819   11.4087 H         1 UNK         0.0792 
    129 H129      -51.0086  -20.8560   12.8080 H         1 UNK         0.0792 
    130 H130      -49.6383  -21.5332   11.9386 H         1 UNK         0.0792 
    131 H131      -49.8657  -24.0065   11.5375 H         1 UNK         0.3086 
    132 H132      -49.4257  -27.3526   12.8239 H         1 UNK         0.0583 
    133 H133      -51.5486  -27.2603   11.4305 H         1 UNK         0.1020 
    134 H134      -50.7019  -26.3002   10.2489 H         1 UNK         0.1020 
    135 H135      -50.7432  -30.7650   10.7113 H         1 UNK         0.0694 
    136 H136      -51.7313  -29.5640   11.4943 H         1 UNK         0.0694 
    137 H137      -48.1897  -26.1039   10.6058 H         1 UNK         0.2989 
    138 H138      -45.4485  -24.6248   12.3816 H         1 UNK         0.1055 
    139 H139      -44.7834  -26.9589   11.9339 H         1 UNK         0.0806 
    140 H140      -44.2608  -25.9344   10.6068 H         1 UNK         0.0806 
    141 H141      -45.6727  -26.9747   10.4214 H         1 UNK         0.0806 
    142 H142      -46.4093  -24.6794    9.6342 H         1 UNK         0.3061 
    143 H143      -48.1242  -21.5603    9.8260 H         1 UNK         0.0734 
    144 H144      -45.7252  -20.9084    9.5875 H         1 UNK         0.0832 
    145 H145      -45.4464  -22.2639    8.5038 H         1 UNK         0.0832 
    146 H146      -46.5282  -20.9538    8.0275 H         1 UNK         0.0832 
    147 H147      -47.5467  -23.3189    7.6416 H         1 UNK         0.3156 
    148 H148      -50.3747  -25.4514    8.0387 H         1 UNK         0.0589 
    149 H149      -49.8317  -23.2467    5.9834 H         1 UNK         0.0808 
    150 H150      -50.9219  -24.6189    5.7843 H         1 UNK         0.0808 
    151 H151      -51.2809  -23.3766    6.9713 H         1 UNK         0.0808 
    152 H152      -48.6669  -25.5783    5.9234 H         1 UNK         0.3098 
    153 H153      -46.4147  -26.5293    5.8862 H         1 UNK         0.0720 
    154 H154      -45.0765  -27.1242    7.8988 H         1 UNK         0.0791 
    155 H155      -45.0792  -28.4452    6.7427 H         1 UNK         0.0791 
    156 H156      -46.0880  -28.5334    8.1868 H         1 UNK         0.0791 
    157 H157      -47.6707  -29.1200    6.4065 H         1 UNK         0.3028 
@<TRIPOS>BOND
     1    1    2 1    
     2    1   82 1    
     3    1   83 1    
     4    1   84 1    
     5    2    3 2    
     6    2    4 am   BACKBONE|DICT|INTERRES
     7    4    5 1    
     8    4   85 1    
     9    5    6 1    
    10    5   80 1    
    11    5   86 1    
    12    6    7 1    
    13    6   87 1    
    14    6   88 1    
    15    7    8 1    
    16    8    9 1    
    17    8   89 1    
    18    8   90 1    
    19    9   10 ar   
    20    9   14 ar   
    21   10   11 ar   
    22   10   91 1    
    23   11   12 ar   
    24   11   58 1    
    25   12   13 ar   
    26   12   92 1    
    27   13   14 ar   
    28   13   15 1    
    29   14   93 1    
    30   15   16 1    
    31   15   94 1    
    32   15   95 1    
    33   16   17 1    
    34   17   18 1    
    35   17   96 1    
    36   17   97 1    
    37   18   19 1    
    38   18   22 1    
    39   18   98 1    
    40   19   20 am   BACKBONE|DICT|INTERRES
    41   19   21 2    
    42   20   99 1    
    43   20  100 1    
    44   22   23 am   BACKBONE|DICT|INTERRES
    45   22  101 1    
    46   23   24 2    
    47   23   25 1    
    48   25   26 1    
    49   25   27 1    
    50   25  102 1    
    51   26  103 1    
    52   26  104 1    
    53   26  105 1    
    54   27   28 am   BACKBONE|DICT|INTERRES
    55   27  106 1    
    56   28   29 2    
    57   28   30 1    
    58   30   31 1    
    59   30   32 1    
    60   30  107 1    
    61   31  108 1    
    62   31  109 1    
    63   31  110 1    
    64   32   33 am   BACKBONE|DICT|INTERRES
    65   32  111 1    
    66   33   34 2    
    67   33   35 1    
    68   35   36 1    
    69   35   37 1    
    70   35  112 1    
    71   36  113 1    
    72   36  114 1    
    73   36  115 1    
    74   37   38 am   BACKBONE|DICT|INTERRES
    75   37  116 1    
    76   38   39 2    
    77   38   40 1    
    78   40   41 1    
    79   40   42 1    
    80   40  117 1    
    81   41  118 1    
    82   41  119 1    
    83   41  120 1    
    84   42   43 am   BACKBONE|DICT|INTERRES
    85   42  121 1    
    86   43   44 2    
    87   43   45 1    
    88   45   46 1    
    89   45   47 1    
    90   45  122 1    
    91   46  123 1    
    92   46  124 1    
    93   46  125 1    
    94   47   48 am   BACKBONE|DICT|INTERRES
    95   47  126 1    
    96   48   49 2    
    97   48   50 1    
    98   50   51 1    
    99   50   52 1    
   100   50  127 1    
   101   51  128 1    
   102   51  129 1    
   103   51  130 1    
   104   52   53 am   BACKBONE|DICT|INTERRES
   105   52  131 1    
   106   53   54 2    
   107   53   55 1    
   108   55   56 1    
   109   55   59 1    
   110   55  132 1    
   111   56   57 1    
   112   56  133 1    
   113   56  134 1    
   114   57   58 1    
   115   58  135 1    
   116   58  136 1    
   117   59   60 am   BACKBONE|DICT|INTERRES
   118   59  137 1    
   119   60   61 2    
   120   60   62 1    
   121   62   63 1    
   122   62   64 1    
   123   62  138 1    
   124   63  139 1    
   125   63  140 1    
   126   63  141 1    
   127   64   65 am   BACKBONE|DICT|INTERRES
   128   64  142 1    
   129   65   66 2    
   130   65   67 1    
   131   67   68 1    
   132   67   69 1    
   133   67  143 1    
   134   68  144 1    
   135   68  145 1    
   136   68  146 1    
   137   69   70 am   BACKBONE|DICT|INTERRES
   138   69  147 1    
   139   70   71 2    
   140   70   72 1    
   141   72   73 1    
   142   72   74 1    
   143   72  148 1    
   144   73  149 1    
   145   73  150 1    
   146   73  151 1    
   147   74   75 am   BACKBONE|DICT|INTERRES
   148   74  152 1    
   149   75   76 2    
   150   75   77 1    
   151   77   78 1    
   152   77   79 1    
   153   77  153 1    
   154   78  154 1    
   155   78  155 1    
   156   78  156 1    
   157   79   80 am   BACKBONE|DICT|INTERRES
   158   79  157 1    
   159   80   81 2    
@<TRIPOS>SUBSTRUCTURE
     1 UNK         1 GROUP             0       ****    0 ROOT    
