@<TRIPOS>MOLECULE
3R207
157   159    1
SMALL
USER_CHARGES


@<TRIPOS>ATOM
      1 CA        -47.3042  -31.2914    5.3495 C.3       0 UNK        -0.1975 
      2 C         -47.3096  -29.9193    6.0067 C.2       0 UNK         0.4852 
      3 O         -46.3975  -29.1256    5.7739 O.2       0 UNK        -0.5216 
      4 N         -48.3276  -29.6357    6.8313 N.am      1 UNK        -0.4461 
      5 CA        -48.5159  -28.3515    7.5242 C.3       1 UNK         0.0864 
      6 C6        -49.9787  -28.1530    7.9932 C.3       14 UNK        -0.0898 
      7 S7        -51.1297  -28.1748    6.5785 S.3       14 UNK        -0.2598 
      8 C8        -52.7020  -28.6364    7.3717 C.3       14 UNK         0.0286 
      9 C9        -53.3927  -27.4399    8.0102 C.ar      14 UNK        -0.0844 
     10 C10       -53.8975  -26.4157    7.2034 C.ar      14 UNK        -0.0881 
     11 C11       -54.5521  -25.3190    7.7700 C.ar      14 UNK        -0.0643 
     12 C12       -54.7353  -25.2700    9.1558 C.ar      14 UNK        -0.0930 
     13 C13       -54.2252  -26.2825    9.9750 C.ar      14 UNK        -0.0827 
     14 C14       -53.5488  -27.3624    9.3973 C.ar      14 UNK        -0.1249 
     15 C15       -54.3964  -26.1988   11.4855 C.3       14 UNK         0.0141 
     16 S16       -56.1125  -26.5501   11.9872 S.3       14 UNK        -0.2313 
     17 C17       -56.2861  -28.3051   11.5116 C.3       14 UNK        -0.0915 
     18 CA        -56.8688  -29.1938   12.6405 C.3       13 UNK         0.0968 
     19 C         -57.0476  -30.6574   12.1370 C.2       13 UNK         0.5732 
     20 N         -56.2676  -31.6284   12.6014 N.am      13 UNK        -0.7310 
     21 O         -57.9176  -30.9155   11.3086 O.2       13 UNK        -0.5035 
     22 N         -56.0899  -29.0710   13.8794 N.am      13 UNK        -0.4233 
     23 C         -56.4709  -29.5171   15.0821 C.2       13 UNK         0.4989 
     24 O         -57.5936  -29.9667   15.3193 O.2       13 UNK        -0.4996 
     25 CA        -55.4138  -29.4572   16.2045 C.3       12 UNK         0.0216 
     26 CB        -55.6055  -30.5736   17.2526 C.3       12 UNK        -0.1964 
     27 N         -54.0246  -29.4439   15.7198 N.am      12 UNK        -0.4276 
     28 C         -53.4131  -30.3687   14.9576 C.2       12 UNK         0.5020 
     29 O         -53.9810  -31.3695   14.5167 O.2       12 UNK        -0.5489 
     30 CA        -51.9384  -30.1277   14.5761 C.3       11 UNK         0.0294 
     31 CB        -51.8221  -29.8040   13.0762 C.3       11 UNK        -0.2019 
     32 N         -51.3040  -29.0570   15.3509 N.am      11 UNK        -0.4493 
     33 C         -50.9478  -29.1667   16.6414 C.2       11 UNK         0.4932 
     34 O         -51.0147  -30.2201   17.2751 O.2       11 UNK        -0.5029 
     35 CA        -50.4665  -27.8945   17.3691 C.3       10 UNK         0.0280 
     36 CB        -48.9339  -27.8977   17.4897 C.3       10 UNK        -0.1976 
     37 N         -50.8924  -26.6382   16.7453 N.am      10 UNK        -0.4242 
     38 C         -52.1578  -26.2512   16.5229 C.2       10 UNK         0.5072 
     39 O         -53.1436  -26.8923   16.8884 O.2       10 UNK        -0.5224 
     40 CA        -52.3566  -24.9716   15.6878 C.3       9 UNK         0.0343 
     41 CB        -52.5913  -23.7603   16.6031 C.3       9 UNK        -0.2003 
     42 N         -51.2482  -24.6780   14.7699 N.am      9 UNK        -0.4272 
     43 C         -50.7982  -25.4874   13.8016 C.2       9 UNK         0.4988 
     44 O         -51.2852  -26.5954   13.5693 O.2       9 UNK        -0.5108 
     45 CA        -49.5850  -24.9849   12.9946 C.3       8 UNK         0.0248 
     46 CB        -49.0269  -26.0767   12.0613 C.3       8 UNK        -0.2001 
     47 N         -49.8961  -23.7790   12.2182 N.am      8 UNK        -0.4140 
     48 C         -50.0499  -22.5462   12.7331 C.2       8 UNK         0.5028 
     49 O         -49.9011  -22.3013   13.9321 O.2       8 UNK        -0.5428 
     50 CA        -50.4456  -21.3877   11.7932 C.3       7 UNK         0.0264 
     51 CB        -49.3339  -20.3295   11.7072 C.3       7 UNK        -0.1988 
     52 N         -50.7993  -21.8271   10.4428 N.am      7 UNK        -0.4454 
     53 C         -51.9815  -22.3699   10.1159 C.2       7 UNK         0.5027 
     54 O         -52.9322  -22.4318   10.8968 O.2       7 UNK        -0.5083 
     55 CA        -52.1331  -22.9889    8.7081 C.3       6 UNK         0.0844 
     56 C56       -53.2020  -22.2435    7.8715 C.3       14 UNK        -0.0967 
     57 S57       -53.6364  -23.1283    6.3345 S.3       14 UNK        -0.2604 
     58 C58       -55.0272  -24.1770    6.8826 C.3       14 UNK         0.0134 
     59 N         -50.8681  -23.1908    7.9887 N.am      6 UNK        -0.4116 
     60 C         -49.9239  -24.0528    8.3891 C.2       5 UNK         0.5034 
     61 O         -50.0135  -24.6994    9.4318 O.2       5 UNK        -0.5045 
     62 CA        -48.6580  -24.2166    7.5317 C.3       5 UNK         0.0224 
     63 CB        -48.5662  -23.2630    6.3182 C.3       5 UNK        -0.1978 
     64 N         -47.4591  -24.1385    8.3763 N.am      5 UNK        -0.4737 
     65 C         -47.0411  -23.0756    9.0800 C.2       4 UNK         0.5027 
     66 O         -47.5968  -21.9771    9.0406 O.2       4 UNK        -0.5211 
     67 CA        -45.8197  -23.2507   10.0047 C.3       4 UNK         0.0297 
     68 CB        -46.2032  -22.9970   11.4729 C.3       4 UNK        -0.1993 
     69 N         -45.1742  -24.5638    9.9158 N.am      4 UNK        -0.4486 
     70 C         -44.2561  -24.9126    9.0021 C.2       3 UNK         0.4961 
     71 O         -43.8999  -24.1886    8.0727 O.2       3 UNK        -0.5105 
     72 CA        -43.6263  -26.3043    9.1618 C.3       3 UNK         0.0299 
     73 CB        -42.4581  -26.2346   10.1678 C.3       3 UNK        -0.1972 
     74 N         -44.6534  -27.2594    9.5774 N.am      3 UNK        -0.4305 
     75 C         -44.5351  -28.5669    9.8232 C.2       2 UNK         0.5006 
     76 O         -43.4792  -29.1970    9.7604 O.2       2 UNK        -0.5106 
     77 CA        -45.8375  -29.3032   10.1935 C.3       2 UNK         0.0296 
     78 CB        -46.3649  -28.8535   11.5712 C.3       2 UNK        -0.2002 
     79 N         -46.8852  -29.2192    9.1639 N.am      2 UNK        -0.4032 
     80 C         -47.5235  -28.1367    8.6875 C.2       1 UNK         0.5000 
     81 O         -47.3321  -26.9917    9.1045 O.2       1 UNK        -0.5238 
     82 H82       -47.3206  -31.1869    4.2650 H         1 UNK         0.0889 
     83 H83       -48.1662  -31.8892    5.6451 H         1 UNK         0.0889 
     84 H84       -46.4020  -31.8366    5.6257 H         1 UNK         0.0889 
     85 H85       -49.0640  -30.3149    6.9643 H         1 UNK         0.3028 
     86 H86       -48.2951  -27.5638    6.8011 H         1 UNK         0.0864 
     87 H87       -50.2601  -28.9279    8.7084 H         1 UNK         0.0720 
     88 H88       -50.1011  -27.1996    8.5098 H         1 UNK         0.0720 
     89 H89       -52.5339  -29.4320    8.0992 H         1 UNK         0.0814 
     90 H90       -53.3632  -29.0572    6.6129 H         1 UNK         0.0814 
     91 H91       -53.7599  -26.4613    6.1316 H         1 UNK         0.1469 
     92 H92       -55.2437  -24.4271    9.6039 H         1 UNK         0.1381 
     93 H93       -53.1521  -28.1469   10.0271 H         1 UNK         0.1206 
     94 H94       -53.7170  -26.8835   11.9957 H         1 UNK         0.0813 
     95 H95       -54.1246  -25.1972   11.8232 H         1 UNK         0.0813 
     96 H96       -56.9236  -28.3419   10.6263 H         1 UNK         0.0638 
     97 H97       -55.3158  -28.6961   11.2021 H         1 UNK         0.0638 
     98 H98       -57.8729  -28.8268   12.8609 H         1 UNK         0.0568 
     99 H99       -55.5407  -31.4408   13.2852 H         1 UNK         0.3450 
    100 H100      -56.4034  -32.5677   12.2647 H         1 UNK         0.3450 
    101 H101      -55.1558  -28.7065   13.7791 H         1 UNK         0.2987 
    102 H102      -55.5659  -28.5012   16.7079 H         1 UNK         0.0766 
    103 H103      -55.5276  -31.5649   16.8048 H         1 UNK         0.0798 
    104 H104      -54.8604  -30.5044   18.0453 H         1 UNK         0.0798 
    105 H105      -56.5859  -30.5061   17.7258 H         1 UNK         0.0798 
    106 H106      -53.4843  -28.6372   16.0223 H         1 UNK         0.3198 
    107 H107      -51.3976  -31.0572   14.7669 H         1 UNK         0.0843 
    108 H108      -52.2060  -30.6248   12.4688 H         1 UNK         0.0831 
    109 H109      -50.7851  -29.6410   12.7820 H         1 UNK         0.0831 
    110 H110      -52.3891  -28.9118   12.8093 H         1 UNK         0.0831 
    111 H111      -51.2147  -28.1588   14.8842 H         1 UNK         0.3133 
    112 H112      -50.8906  -27.9179   18.3749 H         1 UNK         0.0566 
    113 H113      -48.5790  -27.0551   18.0836 H         1 UNK         0.0814 
    114 H114      -48.5825  -28.8064   17.9807 H         1 UNK         0.0814 
    115 H115      -48.4518  -27.8491   16.5123 H         1 UNK         0.0814 
    116 H116      -50.1579  -26.0360   16.4039 H         1 UNK         0.3091 
    117 H117      -53.2506  -25.1205   15.0786 H         1 UNK         0.0702 
    118 H118      -52.8276  -22.8666   16.0250 H         1 UNK         0.0785 
    119 H119      -51.7159  -23.5420   17.2161 H         1 UNK         0.0785 
    120 H120      -53.4286  -23.9379   17.2797 H         1 UNK         0.0785 
    121 H121      -50.8074  -23.7648   14.8477 H         1 UNK         0.2998 
    122 H122      -48.7987  -24.7358   13.7101 H         1 UNK         0.0697 
    123 H123      -49.7804  -26.4335   11.3581 H         1 UNK         0.0825 
    124 H124      -48.6910  -26.9414   12.6343 H         1 UNK         0.0825 
    125 H125      -48.1780  -25.7193   11.4797 H         1 UNK         0.0825 
    126 H126      -50.0453  -23.9267   11.2236 H         1 UNK         0.3029 
    127 H127      -51.3182  -20.9091   12.2435 H         1 UNK         0.0897 
    128 H128      -49.6661  -19.4536   11.1497 H         1 UNK         0.0792 
    129 H129      -49.0381  -19.9863   12.6996 H         1 UNK         0.0792 
    130 H130      -48.4429  -20.7162   11.2161 H         1 UNK         0.0792 
    131 H131      -50.0565  -21.8237    9.7554 H         1 UNK         0.3086 
    132 H132      -52.5052  -23.9919    8.9011 H         1 UNK         0.0583 
    133 H133      -54.1151  -22.0926    8.4512 H         1 UNK         0.1020 
    134 H134      -52.8482  -21.2452    7.6082 H         1 UNK         0.1020 
    135 H135      -55.7718  -23.5661    7.3954 H         1 UNK         0.0694 
    136 H136      -55.5247  -24.5886    6.0033 H         1 UNK         0.0694 
    137 H137      -50.7453  -22.6803    7.1268 H         1 UNK         0.2989 
    138 H138      -48.6949  -25.2352    7.1458 H         1 UNK         0.1055 
    139 H139      -48.5881  -22.2125    6.6097 H         1 UNK         0.0806 
    140 H140      -47.6427  -23.4290    5.7632 H         1 UNK         0.0806 
    141 H141      -49.3879  -23.4319    5.6209 H         1 UNK         0.0806 
    142 H142      -47.0219  -25.0320    8.5731 H         1 UNK         0.3061 
    143 H143      -45.0930  -22.4886    9.7148 H         1 UNK         0.0734 
    144 H144      -46.5670  -21.9795   11.6111 H         1 UNK         0.0832 
    145 H145      -46.9876  -23.6730   11.8115 H         1 UNK         0.0832 
    146 H146      -45.3460  -23.1172   12.1356 H         1 UNK         0.0832 
    147 H147      -45.3880  -25.2169   10.6552 H         1 UNK         0.3156 
    148 H148      -43.2445  -26.6184    8.1887 H         1 UNK         0.0589 
    149 H149      -42.8083  -26.0310   11.1803 H         1 UNK         0.0808 
    150 H150      -41.8872  -27.1623   10.1913 H         1 UNK         0.0808 
    151 H151      -41.7582  -25.4421    9.8989 H         1 UNK         0.0808 
    152 H152      -45.6133  -26.9172    9.5371 H         1 UNK         0.3098 
    153 H153      -45.5868  -30.3623   10.2731 H         1 UNK         0.0720 
    154 H154      -47.2523  -29.4173   11.8590 H         1 UNK         0.0791 
    155 H155      -46.6230  -27.7952   11.5869 H         1 UNK         0.0791 
    156 H156      -45.6134  -29.0137   12.3454 H         1 UNK         0.0791 
    157 H157      -47.1050  -30.0967    8.7144 H         1 UNK         0.3028 
@<TRIPOS>BOND
     1    1    2 1    
     2    1   82 1    
     3    1   83 1    
     4    1   84 1    
     5    2    3 2    
     6    2    4 am   BACKBONE|DICT|INTERRES
     7    4    5 1    
     8    4   85 1    
     9    5    6 1    
    10    5   80 1    
    11    5   86 1    
    12    6    7 1    
    13    6   87 1    
    14    6   88 1    
    15    7    8 1    
    16    8    9 1    
    17    8   89 1    
    18    8   90 1    
    19    9   10 ar   
    20    9   14 ar   
    21   10   11 ar   
    22   10   91 1    
    23   11   12 ar   
    24   11   58 1    
    25   12   13 ar   
    26   12   92 1    
    27   13   14 ar   
    28   13   15 1    
    29   14   93 1    
    30   15   16 1    
    31   15   94 1    
    32   15   95 1    
    33   16   17 1    
    34   17   18 1    
    35   17   96 1    
    36   17   97 1    
    37   18   19 1    
    38   18   22 1    
    39   18   98 1    
    40   19   20 am   BACKBONE|DICT|INTERRES
    41   19   21 2    
    42   20   99 1    
    43   20  100 1    
    44   22   23 am   BACKBONE|DICT|INTERRES
    45   22  101 1    
    46   23   24 2    
    47   23   25 1    
    48   25   26 1    
    49   25   27 1    
    50   25  102 1    
    51   26  103 1    
    52   26  104 1    
    53   26  105 1    
    54   27   28 am   BACKBONE|DICT|INTERRES
    55   27  106 1    
    56   28   29 2    
    57   28   30 1    
    58   30   31 1    
    59   30   32 1    
    60   30  107 1    
    61   31  108 1    
    62   31  109 1    
    63   31  110 1    
    64   32   33 am   BACKBONE|DICT|INTERRES
    65   32  111 1    
    66   33   34 2    
    67   33   35 1    
    68   35   36 1    
    69   35   37 1    
    70   35  112 1    
    71   36  113 1    
    72   36  114 1    
    73   36  115 1    
    74   37   38 am   BACKBONE|DICT|INTERRES
    75   37  116 1    
    76   38   39 2    
    77   38   40 1    
    78   40   41 1    
    79   40   42 1    
    80   40  117 1    
    81   41  118 1    
    82   41  119 1    
    83   41  120 1    
    84   42   43 am   BACKBONE|DICT|INTERRES
    85   42  121 1    
    86   43   44 2    
    87   43   45 1    
    88   45   46 1    
    89   45   47 1    
    90   45  122 1    
    91   46  123 1    
    92   46  124 1    
    93   46  125 1    
    94   47   48 am   BACKBONE|DICT|INTERRES
    95   47  126 1    
    96   48   49 2    
    97   48   50 1    
    98   50   51 1    
    99   50   52 1    
   100   50  127 1    
   101   51  128 1    
   102   51  129 1    
   103   51  130 1    
   104   52   53 am   BACKBONE|DICT|INTERRES
   105   52  131 1    
   106   53   54 2    
   107   53   55 1    
   108   55   56 1    
   109   55   59 1    
   110   55  132 1    
   111   56   57 1    
   112   56  133 1    
   113   56  134 1    
   114   57   58 1    
   115   58  135 1    
   116   58  136 1    
   117   59   60 am   BACKBONE|DICT|INTERRES
   118   59  137 1    
   119   60   61 2    
   120   60   62 1    
   121   62   63 1    
   122   62   64 1    
   123   62  138 1    
   124   63  139 1    
   125   63  140 1    
   126   63  141 1    
   127   64   65 am   BACKBONE|DICT|INTERRES
   128   64  142 1    
   129   65   66 2    
   130   65   67 1    
   131   67   68 1    
   132   67   69 1    
   133   67  143 1    
   134   68  144 1    
   135   68  145 1    
   136   68  146 1    
   137   69   70 am   BACKBONE|DICT|INTERRES
   138   69  147 1    
   139   70   71 2    
   140   70   72 1    
   141   72   73 1    
   142   72   74 1    
   143   72  148 1    
   144   73  149 1    
   145   73  150 1    
   146   73  151 1    
   147   74   75 am   BACKBONE|DICT|INTERRES
   148   74  152 1    
   149   75   76 2    
   150   75   77 1    
   151   77   78 1    
   152   77   79 1    
   153   77  153 1    
   154   78  154 1    
   155   78  155 1    
   156   78  156 1    
   157   79   80 am   BACKBONE|DICT|INTERRES
   158   79  157 1    
   159   80   81 2    
@<TRIPOS>SUBSTRUCTURE
     1 UNK         1 GROUP             0       ****    0 ROOT    
