@<TRIPOS>MOLECULE
3R207
157   159    1
SMALL
USER_CHARGES


@<TRIPOS>ATOM
      1 CA        -49.2595  -30.8505   10.0773 C.3       0 UNK        -0.1975 
      2 C         -49.4651  -29.8992    8.9080 C.2       0 UNK         0.4852 
      3 O         -49.5164  -28.6877    9.1144 O.2       0 UNK        -0.5216 
      4 N         -49.5627  -30.4402    7.6847 N.am      1 UNK        -0.4461 
      5 CA        -49.7645  -29.7518    6.3979 C.3       1 UNK         0.0864 
      6 C6        -51.0460  -28.8783    6.3298 C.3       14 UNK        -0.0898 
      7 S7        -52.5736  -29.8553    6.5019 S.3       14 UNK        -0.2598 
      8 C8        -53.8009  -28.6820    5.8412 C.3       14 UNK         0.0286 
      9 C9        -54.1278  -27.5866    6.8459 C.ar      14 UNK        -0.0844 
     10 C10       -53.3924  -26.3961    6.8693 C.ar      14 UNK        -0.0881 
     11 C11       -53.6796  -25.4038    7.8121 C.ar      14 UNK        -0.0643 
     12 C12       -54.7385  -25.5930    8.7063 C.ar      14 UNK        -0.0930 
     13 C13       -55.4777  -26.7792    8.6946 C.ar      14 UNK        -0.0827 
     14 C14       -55.1669  -27.7725    7.7625 C.ar      14 UNK        -0.1249 
     15 C15       -56.5950  -26.9957    9.7040 C.3       14 UNK         0.0141 
     16 S16       -55.9189  -27.2031   11.3785 S.3       14 UNK        -0.2313 
     17 C17       -57.3839  -27.7692   12.3085 C.3       14 UNK        -0.0915 
     18 CA        -57.2911  -29.2455   12.7797 C.3       13 UNK         0.0968 
     19 C         -57.3101  -30.2456   11.5830 C.2       13 UNK         0.5732 
     20 N         -56.2529  -31.0078   11.3237 N.am      13 UNK        -0.7310 
     21 O         -58.3151  -30.3366   10.8817 O.2       13 UNK        -0.5035 
     22 N         -56.1957  -29.4470   13.7426 N.am      13 UNK        -0.4233 
     23 C         -56.0846  -30.5173   14.5449 C.2       13 UNK         0.4989 
     24 O         -56.9795  -31.3545   14.6783 O.2       13 UNK        -0.4996 
     25 CA        -54.7592  -30.6999   15.3218 C.3       12 UNK         0.0216 
     26 CB        -54.4325  -32.1858   15.5827 C.3       12 UNK        -0.1964 
     27 N         -53.6054  -30.0272   14.7090 N.am      12 UNK        -0.4276 
     28 C         -53.1502  -30.1608   13.4536 C.2       12 UNK         0.5020 
     29 O         -53.6053  -30.9809   12.6538 O.2       12 UNK        -0.5489 
     30 CA        -52.0284  -29.1981   13.0007 C.3       11 UNK         0.0294 
     31 CB        -52.1866  -28.7859   11.5232 C.3       11 UNK        -0.2019 
     32 N         -51.8311  -27.9968   13.8331 N.am      11 UNK        -0.4493 
     33 C         -52.7415  -27.0842   14.2158 C.2       11 UNK         0.4932 
     34 O         -53.9419  -27.1776   13.9654 O.2       11 UNK        -0.5029 
     35 CA        -52.2504  -25.8701   15.0308 C.3       10 UNK         0.0280 
     36 CB        -53.1536  -25.5927   16.2515 C.3       10 UNK        -0.1976 
     37 N         -50.8338  -25.9183   15.4182 N.am      10 UNK        -0.4242 
     38 C         -50.2397  -26.7568   16.2809 C.2       10 UNK         0.5072 
     39 O         -50.8307  -27.6562   16.8794 O.2       10 UNK        -0.5224 
     40 CA        -48.7248  -26.5934   16.4895 C.3       9 UNK         0.0343 
     41 CB        -47.9699  -27.8237   15.9550 C.3       9 UNK        -0.2003 
     42 N         -48.1937  -25.3905   15.8384 N.am      9 UNK        -0.4272 
     43 C         -47.9590  -24.2303   16.4649 C.2       9 UNK         0.4988 
     44 O         -48.1947  -24.0346   17.6578 O.2       9 UNK        -0.5108 
     45 CA        -47.3301  -23.1029   15.6327 C.3       8 UNK         0.0248 
     46 CB        -45.8312  -23.3697   15.4155 C.3       8 UNK        -0.2001 
     47 N         -47.9813  -22.8802   14.3390 N.am      8 UNK        -0.4140 
     48 C         -49.1627  -22.2640   14.1832 C.2       8 UNK         0.5028 
     49 O         -49.8923  -21.9374   15.1195 O.2       8 UNK        -0.5428 
     50 CA        -49.5961  -21.9349   12.7452 C.3       7 UNK         0.0264 
     51 CB        -48.6638  -20.8928   12.1045 C.3       7 UNK        -0.1988 
     52 N         -49.6387  -23.1423   11.9235 N.am      7 UNK        -0.4454 
     53 C         -50.7082  -23.9450   11.8228 C.2       7 UNK         0.5027 
     54 O         -51.8152  -23.6532   12.2759 O.2       7 UNK        -0.5083 
     55 CA        -50.5199  -25.3276   11.1592 C.3       6 UNK         0.0844 
     56 C56       -51.4254  -25.5572    9.9272 C.3       14 UNK        -0.0967 
     57 S57       -51.1283  -24.4740    8.4877 S.3       14 UNK        -0.2604 
     58 C58       -52.8262  -24.1420    7.8983 C.3       14 UNK         0.0134 
     59 N         -49.1169  -25.6899   10.9336 N.am      6 UNK        -0.4116 
     60 C         -48.2852  -26.0379   11.9258 C.2       5 UNK         0.5034 
     61 O         -48.6207  -26.0862   13.1093 O.2       5 UNK        -0.5045 
     62 CA        -46.8211  -26.3112   11.5621 C.3       5 UNK         0.0224 
     63 CB        -46.6565  -27.6957   10.9179 C.3       5 UNK        -0.1978 
     64 N         -46.2566  -25.2761   10.6945 N.am      5 UNK        -0.4737 
     65 C         -46.0211  -24.0138   11.0772 C.2       4 UNK         0.5027 
     66 O         -46.2973  -23.5790   12.1938 O.2       4 UNK        -0.5211 
     67 CA        -45.3916  -23.0746   10.0372 C.3       4 UNK         0.0297 
     68 CB        -43.8690  -23.2741    9.9810 C.3       4 UNK        -0.1993 
     69 N         -45.9648  -23.2645    8.7048 N.am      4 UNK        -0.4486 
     70 C         -47.1976  -22.8700    8.3584 C.2       3 UNK         0.4961 
     71 O         -47.9465  -22.2319    9.0970 O.2       3 UNK        -0.5105 
     72 CA        -47.6848  -23.2750    6.9564 C.3       3 UNK         0.0299 
     73 CB        -47.2675  -22.2220    5.9172 C.3       3 UNK        -0.1972 
     74 N         -47.2360  -24.6032    6.5176 N.am      3 UNK        -0.4305 
     75 C         -47.4829  -25.7497    7.1661 C.2       2 UNK         0.5006 
     76 O         -48.0228  -25.8181    8.2718 O.2       2 UNK        -0.5106 
     77 CA        -47.0300  -27.0408    6.4828 C.3       2 UNK         0.0296 
     78 CB        -45.6488  -27.4857    6.9918 C.3       2 UNK        -0.2002 
     79 N         -48.0263  -28.0593    6.7918 N.am      2 UNK        -0.4032 
     80 C         -48.5383  -28.9406    5.9299 C.2       1 UNK         0.5000 
     81 O         -48.0994  -29.1156    4.7911 O.2       1 UNK        -0.5238 
     82 H82       -49.1400  -31.8824    9.7480 H         1 UNK         0.0889 
     83 H83       -50.1131  -30.8067   10.7521 H         1 UNK         0.0889 
     84 H84       -48.3682  -30.5682   10.6367 H         1 UNK         0.0889 
     85 H85       -49.4886  -31.4447    7.6039 H         1 UNK         0.3028 
     86 H86       -49.8829  -30.5519    5.6649 H         1 UNK         0.0864 
     87 H87       -51.0372  -28.1016    7.0961 H         1 UNK         0.0720 
     88 H88       -51.0927  -28.3572    5.3715 H         1 UNK         0.0720 
     89 H89       -54.7085  -29.2325    5.5891 H         1 UNK         0.0814 
     90 H90       -53.4436  -28.2501    4.9052 H         1 UNK         0.0814 
     91 H91       -52.5746  -26.2518    6.1769 H         1 UNK         0.1469 
     92 H92       -54.9665  -24.8332    9.4415 H         1 UNK         0.1381 
     93 H93       -55.7270  -28.6978    7.7557 H         1 UNK         0.1206 
     94 H94       -57.1845  -27.8751    9.4397 H         1 UNK         0.0813 
     95 H95       -57.2771  -26.1445    9.6889 H         1 UNK         0.0813 
     96 H96       -58.2832  -27.6148   11.7096 H         1 UNK         0.0638 
     97 H97       -57.4965  -27.1169   13.1757 H         1 UNK         0.0638 
     98 H98       -58.2146  -29.4456   13.3263 H         1 UNK         0.0568 
     99 H99       -56.2903  -31.6493   10.5488 H         1 UNK         0.3450 
    100 H100      -55.4034  -30.9366   11.8763 H         1 UNK         0.3450 
    101 H101      -55.4269  -28.7885   13.6828 H         1 UNK         0.2987 
    102 H102      -54.9123  -30.2189   16.2888 H         1 UNK         0.0766 
    103 H103      -53.5066  -32.2955   16.1472 H         1 UNK         0.0798 
    104 H104      -54.3257  -32.7438   14.6518 H         1 UNK         0.0798 
    105 H105      -55.2208  -32.6675   16.1624 H         1 UNK         0.0798 
    106 H106      -53.1747  -29.3048   15.2702 H         1 UNK         0.3198 
    107 H107      -51.1073  -29.7771   13.0808 H         1 UNK         0.0843 
    108 H108      -51.2869  -28.2884   11.1661 H         1 UNK         0.0831 
    109 H109      -53.0302  -28.1113   11.3764 H         1 UNK         0.0831 
    110 H110      -52.3443  -29.6466   10.8724 H         1 UNK         0.0831 
    111 H111      -50.8794  -27.8323   14.1301 H         1 UNK         0.3133 
    112 H112      -52.3449  -25.0116   14.3684 H         1 UNK         0.0566 
    113 H113      -52.8103  -24.7213   16.8092 H         1 UNK         0.0814 
    114 H114      -54.1795  -25.3910   15.9406 H         1 UNK         0.0814 
    115 H115      -53.1865  -26.4398   16.9370 H         1 UNK         0.0814 
    116 H116      -50.2346  -25.2482   14.9562 H         1 UNK         0.3091 
    117 H117      -48.5536  -26.5407   17.5667 H         1 UNK         0.0702 
    118 H118      -48.2957  -28.7327   16.4626 H         1 UNK         0.0785 
    119 H119      -46.8963  -27.7307   16.1196 H         1 UNK         0.0785 
    120 H120      -48.1327  -27.9726   14.8874 H         1 UNK         0.0785 
    121 H121      -48.0255  -25.4652   14.8386 H         1 UNK         0.2998 
    122 H122      -47.4186  -22.1811   16.2121 H         1 UNK         0.0697 
    123 H123      -45.6611  -24.2693   14.8224 H         1 UNK         0.0825 
    124 H124      -45.3149  -23.5031   16.3672 H         1 UNK         0.0825 
    125 H125      -45.3515  -22.5371   14.9005 H         1 UNK         0.0825 
    126 H126      -47.4319  -23.1207   13.5142 H         1 UNK         0.3029 
    127 H127      -50.5933  -21.4914   12.7930 H         1 UNK         0.0897 
    128 H128      -49.0276  -20.5945   11.1210 H         1 UNK         0.0792 
    129 H129      -48.6075  -19.9912   12.7157 H         1 UNK         0.0792 
    130 H130      -47.6477  -21.2670   11.9799 H         1 UNK         0.0792 
    131 H131      -48.7703  -23.4394   11.5001 H         1 UNK         0.3086 
    132 H132      -50.8905  -26.0298   11.9079 H         1 UNK         0.0583 
    133 H133      -51.3200  -26.5856    9.5788 H         1 UNK         0.1020 
    134 H134      -52.4644  -25.4650   10.2451 H         1 UNK         0.1020 
    135 H135      -53.2877  -23.4108    8.5638 H         1 UNK         0.0694 
    136 H136      -52.7745  -23.6718    6.9155 H         1 UNK         0.0694 
    137 H137      -48.7808  -25.6790    9.9713 H         1 UNK         0.2989 
    138 H138      -46.2517  -26.3082   12.4946 H         1 UNK         0.1055 
    139 H139      -47.0638  -28.4754   11.5628 H         1 UNK         0.0806 
    140 H140      -45.6065  -27.9324   10.7466 H         1 UNK         0.0806 
    141 H141      -47.1765  -27.7617    9.9629 H         1 UNK         0.0806 
    142 H142      -46.0904  -25.5298    9.7319 H         1 UNK         0.3061 
    143 H143      -45.5873  -22.0477   10.3545 H         1 UNK         0.0734 
    144 H144      -43.4007  -22.5638    9.2995 H         1 UNK         0.0832 
    145 H145      -43.4212  -23.1204   10.9640 H         1 UNK         0.0832 
    146 H146      -43.6009  -24.2800    9.6555 H         1 UNK         0.0832 
    147 H147      -45.4142  -23.7717    8.0277 H         1 UNK         0.3156 
    148 H148      -48.7755  -23.2997    6.9895 H         1 UNK         0.0589 
    149 H149      -46.1841  -22.1740    5.8010 H         1 UNK         0.0808 
    150 H150      -47.7026  -22.4330    4.9401 H         1 UNK         0.0808 
    151 H151      -47.6077  -21.2280    6.2119 H         1 UNK         0.0808 
    152 H152      -46.7698  -24.6454    5.6225 H         1 UNK         0.3098 
    153 H153      -46.9852  -26.8719    5.4047 H         1 UNK         0.0720 
    154 H154      -45.3325  -28.4109    6.5098 H         1 UNK         0.0791 
    155 H155      -45.6477  -27.6555    8.0684 H         1 UNK         0.0791 
    156 H156      -44.8901  -26.7324    6.7770 H         1 UNK         0.0791 
    157 H157      -48.4820  -27.9623    7.6997 H         1 UNK         0.3028 
@<TRIPOS>BOND
     1    1    2 1    
     2    1   82 1    
     3    1   83 1    
     4    1   84 1    
     5    2    3 2    
     6    2    4 am   BACKBONE|DICT|INTERRES
     7    4    5 1    
     8    4   85 1    
     9    5    6 1    
    10    5   80 1    
    11    5   86 1    
    12    6    7 1    
    13    6   87 1    
    14    6   88 1    
    15    7    8 1    
    16    8    9 1    
    17    8   89 1    
    18    8   90 1    
    19    9   10 ar   
    20    9   14 ar   
    21   10   11 ar   
    22   10   91 1    
    23   11   12 ar   
    24   11   58 1    
    25   12   13 ar   
    26   12   92 1    
    27   13   14 ar   
    28   13   15 1    
    29   14   93 1    
    30   15   16 1    
    31   15   94 1    
    32   15   95 1    
    33   16   17 1    
    34   17   18 1    
    35   17   96 1    
    36   17   97 1    
    37   18   19 1    
    38   18   22 1    
    39   18   98 1    
    40   19   20 am   BACKBONE|DICT|INTERRES
    41   19   21 2    
    42   20   99 1    
    43   20  100 1    
    44   22   23 am   BACKBONE|DICT|INTERRES
    45   22  101 1    
    46   23   24 2    
    47   23   25 1    
    48   25   26 1    
    49   25   27 1    
    50   25  102 1    
    51   26  103 1    
    52   26  104 1    
    53   26  105 1    
    54   27   28 am   BACKBONE|DICT|INTERRES
    55   27  106 1    
    56   28   29 2    
    57   28   30 1    
    58   30   31 1    
    59   30   32 1    
    60   30  107 1    
    61   31  108 1    
    62   31  109 1    
    63   31  110 1    
    64   32   33 am   BACKBONE|DICT|INTERRES
    65   32  111 1    
    66   33   34 2    
    67   33   35 1    
    68   35   36 1    
    69   35   37 1    
    70   35  112 1    
    71   36  113 1    
    72   36  114 1    
    73   36  115 1    
    74   37   38 am   BACKBONE|DICT|INTERRES
    75   37  116 1    
    76   38   39 2    
    77   38   40 1    
    78   40   41 1    
    79   40   42 1    
    80   40  117 1    
    81   41  118 1    
    82   41  119 1    
    83   41  120 1    
    84   42   43 am   BACKBONE|DICT|INTERRES
    85   42  121 1    
    86   43   44 2    
    87   43   45 1    
    88   45   46 1    
    89   45   47 1    
    90   45  122 1    
    91   46  123 1    
    92   46  124 1    
    93   46  125 1    
    94   47   48 am   BACKBONE|DICT|INTERRES
    95   47  126 1    
    96   48   49 2    
    97   48   50 1    
    98   50   51 1    
    99   50   52 1    
   100   50  127 1    
   101   51  128 1    
   102   51  129 1    
   103   51  130 1    
   104   52   53 am   BACKBONE|DICT|INTERRES
   105   52  131 1    
   106   53   54 2    
   107   53   55 1    
   108   55   56 1    
   109   55   59 1    
   110   55  132 1    
   111   56   57 1    
   112   56  133 1    
   113   56  134 1    
   114   57   58 1    
   115   58  135 1    
   116   58  136 1    
   117   59   60 am   BACKBONE|DICT|INTERRES
   118   59  137 1    
   119   60   61 2    
   120   60   62 1    
   121   62   63 1    
   122   62   64 1    
   123   62  138 1    
   124   63  139 1    
   125   63  140 1    
   126   63  141 1    
   127   64   65 am   BACKBONE|DICT|INTERRES
   128   64  142 1    
   129   65   66 2    
   130   65   67 1    
   131   67   68 1    
   132   67   69 1    
   133   67  143 1    
   134   68  144 1    
   135   68  145 1    
   136   68  146 1    
   137   69   70 am   BACKBONE|DICT|INTERRES
   138   69  147 1    
   139   70   71 2    
   140   70   72 1    
   141   72   73 1    
   142   72   74 1    
   143   72  148 1    
   144   73  149 1    
   145   73  150 1    
   146   73  151 1    
   147   74   75 am   BACKBONE|DICT|INTERRES
   148   74  152 1    
   149   75   76 2    
   150   75   77 1    
   151   77   78 1    
   152   77   79 1    
   153   77  153 1    
   154   78  154 1    
   155   78  155 1    
   156   78  156 1    
   157   79   80 am   BACKBONE|DICT|INTERRES
   158   79  157 1    
   159   80   81 2    
@<TRIPOS>SUBSTRUCTURE
     1 UNK         1 GROUP             0       ****    0 ROOT    
