@<TRIPOS>MOLECULE
3R207
157   159    1
SMALL
USER_CHARGES


@<TRIPOS>ATOM
      1 CA        -46.6797  -28.7253   11.1005 C.3       0 UNK        -0.1975 
      2 C         -46.7339  -29.0761    9.6221 C.2       0 UNK         0.4852 
      3 O         -45.8801  -29.8156    9.1336 O.2       0 UNK        -0.5216 
      4 N         -47.7282  -28.5407    8.9037 N.am      1 UNK        -0.4461 
      5 CA        -48.0093  -28.8228    7.4864 C.3       1 UNK         0.0864 
      6 C6        -49.5234  -28.6670    7.1804 C.3       14 UNK        -0.0898 
      7 S7        -50.5040  -29.8903    8.1130 S.3       14 UNK        -0.2598 
      8 C8        -52.1274  -29.7826    7.3010 C.3       14 UNK         0.0286 
      9 C9        -53.0246  -28.7385    7.9503 C.ar      14 UNK        -0.0844 
     10 C10       -53.2324  -27.4991    7.3396 C.ar      14 UNK        -0.0881 
     11 C11       -54.1146  -26.5719    7.9028 C.ar      14 UNK        -0.0643 
     12 C12       -54.7770  -26.8859    9.0936 C.ar      14 UNK        -0.0930 
     13 C13       -54.5718  -28.1201    9.7252 C.ar      14 UNK        -0.0827 
     14 C14       -53.6954  -29.0394    9.1399 C.ar      14 UNK        -0.1249 
     15 C15       -55.3354  -28.5335   10.9853 C.3       14 UNK         0.0141 
     16 S16       -55.9084  -27.1487   12.0314 S.3       14 UNK        -0.2313 
     17 C17       -57.4847  -27.7979   12.6902 C.3       14 UNK        -0.0915 
     18 CA        -57.4468  -28.0806   14.2219 C.3       13 UNK         0.0968 
     19 C         -58.8355  -28.4439   14.8346 C.2       13 UNK         0.5732 
     20 N         -59.9251  -27.8743   14.3359 N.am      13 UNK        -0.7310 
     21 O         -58.9391  -29.1993   15.8002 O.2       13 UNK        -0.5035 
     22 N         -56.3839  -29.0217   14.6079 N.am      13 UNK        -0.4233 
     23 C         -56.3032  -30.3214   14.2861 C.2       13 UNK         0.4989 
     24 O         -57.1164  -30.8975   13.5616 O.2       13 UNK        -0.4996 
     25 CA        -55.1169  -31.1278   14.8533 C.3       12 UNK         0.0216 
     26 CB        -54.3357  -31.8266   13.7254 C.3       12 UNK        -0.1964 
     27 N         -54.1906  -30.2881   15.6169 N.am      12 UNK        -0.4276 
     28 C         -54.1822  -30.1552   16.9511 C.2       12 UNK         0.5020 
     29 O         -54.8988  -30.8117   17.7075 O.2       12 UNK        -0.5489 
     30 CA        -53.2352  -29.0950   17.5532 C.3       11 UNK         0.0294 
     31 CB        -51.9217  -29.7482   18.0119 C.3       11 UNK        -0.2019 
     32 N         -52.9278  -27.9882   16.6412 N.am      11 UNK        -0.4493 
     33 C         -53.8303  -27.1355   16.1349 C.2       11 UNK         0.4932 
     34 O         -55.0124  -27.1200   16.4764 O.2       11 UNK        -0.5029 
     35 CA        -53.3659  -26.1826   15.0181 C.3       10 UNK         0.0280 
     36 CB        -53.0883  -24.7856   15.5938 C.3       10 UNK        -0.1976 
     37 N         -52.1969  -26.6286   14.2491 N.am      10 UNK        -0.4242 
     38 C         -52.0382  -27.8081   13.6284 C.2       10 UNK         0.5072 
     39 O         -52.8625  -28.7202   13.6845 O.2       10 UNK        -0.5224 
     40 CA        -50.7396  -28.0404   12.8329 C.3       9 UNK         0.0343 
     41 CB        -51.0548  -28.3521   11.3634 C.3       9 UNK        -0.2003 
     42 N         -49.7906  -26.9262   12.8878 N.am      9 UNK        -0.4272 
     43 C         -49.0130  -26.6217   13.9357 C.2       9 UNK         0.4988 
     44 O         -49.0022  -27.2594   14.9883 O.2       9 UNK        -0.5108 
     45 CA        -48.1294  -25.3731   13.7946 C.3       8 UNK         0.0248 
     46 CB        -46.8269  -25.6956   13.0462 C.3       8 UNK        -0.2001 
     47 N         -48.8379  -24.2844   13.1173 N.am      8 UNK        -0.4140 
     48 C         -49.7221  -23.4768   13.7203 C.2       8 UNK         0.5028 
     49 O         -49.9674  -23.5122   14.9256 O.2       8 UNK        -0.5428 
     50 CA        -50.4813  -22.4773   12.8321 C.3       7 UNK         0.0264 
     51 CB        -49.7280  -21.1410   12.7434 C.3       7 UNK        -0.1988 
     52 N         -50.7300  -22.9994   11.4855 N.am      7 UNK        -0.4454 
     53 C         -51.6632  -23.9258   11.2084 C.2       7 UNK         0.5027 
     54 O         -52.4269  -24.3888   12.0535 O.2       7 UNK        -0.5083 
     55 CA        -51.7620  -24.4354    9.7554 C.3       6 UNK         0.0844 
     56 C56       -52.8751  -23.6735    8.9932 C.3       14 UNK        -0.0967 
     57 S57       -52.9701  -24.1271    7.2254 S.3       14 UNK        -0.2604 
     58 C58       -54.3967  -25.2542    7.1941 C.3       14 UNK         0.0134 
     59 N         -50.4836  -24.3881    9.0457 N.am      6 UNK        -0.4116 
     60 C         -49.3661  -25.0418    9.3775 C.2       5 UNK         0.5034 
     61 O         -49.2489  -25.7661   10.3665 O.2       5 UNK        -0.5045 
     62 CA        -48.1542  -24.8404    8.4606 C.3       5 UNK         0.0224 
     63 CB        -48.4985  -24.2889    7.0595 C.3       5 UNK        -0.1978 
     64 N         -47.1041  -24.0298    9.0768 N.am      5 UNK        -0.4737 
     65 C         -47.2124  -22.8083    9.6211 C.2       4 UNK         0.5027 
     66 O         -48.2841  -22.2346    9.8203 O.2       4 UNK        -0.5211 
     67 CA        -45.8942  -22.0968    9.9877 C.3       4 UNK         0.0297 
     68 CB        -45.6076  -22.2222   11.4912 C.3       4 UNK        -0.1993 
     69 N         -44.7394  -22.6044    9.2366 N.am      4 UNK        -0.4486 
     70 C         -44.5526  -22.4489    7.9183 C.2       3 UNK         0.4961 
     71 O         -45.2652  -21.7447    7.2025 O.2       3 UNK        -0.5105 
     72 CA        -43.4091  -23.2517    7.2706 C.3       3 UNK         0.0299 
     73 CB        -42.2494  -23.5881    8.2364 C.3       3 UNK        -0.1972 
     74 N         -43.9232  -24.4602    6.6107 N.am      3 UNK        -0.4305 
     75 C         -44.5672  -25.4851    7.1891 C.2       2 UNK         0.5006 
     76 O         -44.7670  -25.5812    8.4043 O.2       2 UNK        -0.5106 
     77 CA        -45.0873  -26.5826    6.2516 C.3       2 UNK         0.0296 
     78 CB        -43.9365  -27.4510    5.7137 C.3       2 UNK        -0.2002 
     79 N         -46.0262  -27.4233    6.9905 N.am      2 UNK        -0.4032 
     80 C         -47.1180  -28.0228    6.5006 C.2       1 UNK         0.5000 
     81 O         -47.4361  -27.9601    5.3121 O.2       1 UNK        -0.5238 
     82 H82       -47.5699  -28.1847   11.4198 H         1 UNK         0.0889 
     83 H83       -45.8068  -28.1068   11.3068 H         1 UNK         0.0889 
     84 H84       -46.6057  -29.6323   11.6996 H         1 UNK         0.0889 
     85 H85       -48.4023  -27.9480    9.3685 H         1 UNK         0.3028 
     86 H86       -47.7531  -29.8683    7.3001 H         1 UNK         0.0864 
     87 H87       -49.8751  -27.6626    7.4227 H         1 UNK         0.0720 
     88 H88       -49.7249  -28.8216    6.1189 H         1 UNK         0.0720 
     89 H89       -52.6118  -30.7577    7.3684 H         1 UNK         0.0814 
     90 H90       -52.0041  -29.5848    6.2353 H         1 UNK         0.0814 
     91 H91       -52.7282  -27.2617    6.4127 H         1 UNK         0.1469 
     92 H92       -55.4743  -26.1729    9.5094 H         1 UNK         0.1381 
     93 H93       -53.5453  -30.0054    9.6030 H         1 UNK         0.1206 
     94 H94       -56.1847  -29.1369   10.6652 H         1 UNK         0.0813 
     95 H95       -54.7117  -29.1809   11.6033 H         1 UNK         0.0813 
     96 H96       -57.7928  -28.6901   12.1446 H         1 UNK         0.0638 
     97 H97       -58.2342  -27.0397   12.4615 H         1 UNK         0.0638 
     98 H98       -57.1770  -27.1453   14.7127 H         1 UNK         0.0568 
     99 H99       -59.8719  -27.2318   13.5619 H         1 UNK         0.3450 
    100 H100      -60.8200  -28.0930   14.7450 H         1 UNK         0.3450 
    101 H101      -55.7032  -28.6402   15.2519 H         1 UNK         0.2987 
    102 H102      -55.5371  -31.9006   15.5001 H         1 UNK         0.0766 
    103 H103      -53.9255  -31.1103   13.0130 H         1 UNK         0.0798 
    104 H104      -53.5081  -32.4142   14.1225 H         1 UNK         0.0798 
    105 H105      -54.9770  -32.5098   13.1673 H         1 UNK         0.0798 
    106 H106      -53.5868  -29.6893   15.0528 H         1 UNK         0.3198 
    107 H107      -53.7342  -28.6733   18.4284 H         1 UNK         0.0843 
    108 H108      -52.1150  -30.5603   18.7143 H         1 UNK         0.0831 
    109 H109      -51.2763  -29.0310   18.5193 H         1 UNK         0.0831 
    110 H110      -51.3651  -30.1686   17.1733 H         1 UNK         0.0831 
    111 H111      -51.9785  -27.9273   16.3011 H         1 UNK         0.3133 
    112 H112      -54.1915  -26.0974   14.3098 H         1 UNK         0.0566 
    113 H113      -53.9447  -24.4160   16.1594 H         1 UNK         0.0814 
    114 H114      -52.8913  -24.0630   14.8018 H         1 UNK         0.0814 
    115 H115      -52.2286  -24.7895   16.2652 H         1 UNK         0.0814 
    116 H116      -51.4718  -25.9395   14.1146 H         1 UNK         0.3091 
    117 H117      -50.2558  -28.9187   13.2650 H         1 UNK         0.0702 
    118 H118      -51.5837  -27.5311   10.8796 H         1 UNK         0.0785 
    119 H119      -51.6841  -29.2386   11.2781 H         1 UNK         0.0785 
    120 H120      -50.1464  -28.5484   10.7959 H         1 UNK         0.0785 
    121 H121      -49.6975  -26.3771   12.0360 H         1 UNK         0.2998 
    122 H122      -47.8603  -25.0496   14.8026 H         1 UNK         0.0697 
    123 H123      -46.9903  -25.8380   11.9778 H         1 UNK         0.0825 
    124 H124      -46.3634  -26.6033   13.4352 H         1 UNK         0.0825 
    125 H125      -46.1013  -24.8940   13.1718 H         1 UNK         0.0825 
    126 H126      -48.7281  -24.2186   12.1149 H         1 UNK         0.3029 
    127 H127      -51.4453  -22.2847   13.3088 H         1 UNK         0.0897 
    128 H128      -50.2908  -20.4068   12.1671 H         1 UNK         0.0792 
    129 H129      -49.5664  -20.7186   13.7361 H         1 UNK         0.0792 
    130 H130      -48.7509  -21.2544   12.2757 H         1 UNK         0.0792 
    131 H131      -50.1110  -22.6776   10.7469 H         1 UNK         0.3086 
    132 H132      -52.0527  -25.4862    9.8054 H         1 UNK         0.0583 
    133 H133      -53.8442  -23.8456    9.4659 H         1 UNK         0.1020 
    134 H134      -52.7049  -22.5960    9.0444 H         1 UNK         0.1020 
    135 H135      -55.2637  -24.7522    7.6263 H         1 UNK         0.0694 
    136 H136      -54.6544  -25.4607    6.1544 H         1 UNK         0.0694 
    137 H137      -50.4704  -23.8135    8.2159 H         1 UNK         0.2989 
    138 H138      -47.7276  -25.8300    8.3289 H         1 UNK         0.1055 
    139 H139      -49.2637  -24.8935    6.5697 H         1 UNK         0.0806 
    140 H140      -47.6217  -24.3045    6.4118 H         1 UNK         0.0806 
    141 H141      -48.8544  -23.2585    7.0960 H         1 UNK         0.0806 
    142 H142      -46.1703  -24.4270    9.0082 H         1 UNK         0.3061 
    143 H143      -46.0212  -21.0391    9.7483 H         1 UNK         0.0734 
    144 H144      -46.4653  -21.9106   12.0878 H         1 UNK         0.0832 
    145 H145      -45.3703  -23.2483   11.7677 H         1 UNK         0.0832 
    146 H146      -44.7661  -21.5949   11.7857 H         1 UNK         0.0832 
    147 H147      -44.1142  -23.2272    9.7281 H         1 UNK         0.3156 
    148 H148      -42.9992  -22.6187    6.4819 H         1 UNK         0.0589 
    149 H149      -42.5398  -24.2845    9.0231 H         1 UNK         0.0808 
    150 H150      -41.4156  -24.0379    7.6974 H         1 UNK         0.0808 
    151 H151      -41.8677  -22.6868    8.7179 H         1 UNK         0.0808 
    152 H152      -43.8349  -24.4666    5.6038 H         1 UNK         0.3098 
    153 H153      -45.6041  -26.0987    5.4203 H         1 UNK         0.0720 
    154 H154      -44.3080  -28.2291    5.0467 H         1 UNK         0.0791 
    155 H155      -43.3900  -27.9382    6.5221 H         1 UNK         0.0791 
    156 H156      -43.2205  -26.8557    5.1462 H         1 UNK         0.0791 
    157 H157      -45.8330  -27.4914    7.9813 H         1 UNK         0.3028 
@<TRIPOS>BOND
     1    1    2 1    
     2    1   82 1    
     3    1   83 1    
     4    1   84 1    
     5    2    3 2    
     6    2    4 am   BACKBONE|DICT|INTERRES
     7    4    5 1    
     8    4   85 1    
     9    5    6 1    
    10    5   80 1    
    11    5   86 1    
    12    6    7 1    
    13    6   87 1    
    14    6   88 1    
    15    7    8 1    
    16    8    9 1    
    17    8   89 1    
    18    8   90 1    
    19    9   10 ar   
    20    9   14 ar   
    21   10   11 ar   
    22   10   91 1    
    23   11   12 ar   
    24   11   58 1    
    25   12   13 ar   
    26   12   92 1    
    27   13   14 ar   
    28   13   15 1    
    29   14   93 1    
    30   15   16 1    
    31   15   94 1    
    32   15   95 1    
    33   16   17 1    
    34   17   18 1    
    35   17   96 1    
    36   17   97 1    
    37   18   19 1    
    38   18   22 1    
    39   18   98 1    
    40   19   20 am   BACKBONE|DICT|INTERRES
    41   19   21 2    
    42   20   99 1    
    43   20  100 1    
    44   22   23 am   BACKBONE|DICT|INTERRES
    45   22  101 1    
    46   23   24 2    
    47   23   25 1    
    48   25   26 1    
    49   25   27 1    
    50   25  102 1    
    51   26  103 1    
    52   26  104 1    
    53   26  105 1    
    54   27   28 am   BACKBONE|DICT|INTERRES
    55   27  106 1    
    56   28   29 2    
    57   28   30 1    
    58   30   31 1    
    59   30   32 1    
    60   30  107 1    
    61   31  108 1    
    62   31  109 1    
    63   31  110 1    
    64   32   33 am   BACKBONE|DICT|INTERRES
    65   32  111 1    
    66   33   34 2    
    67   33   35 1    
    68   35   36 1    
    69   35   37 1    
    70   35  112 1    
    71   36  113 1    
    72   36  114 1    
    73   36  115 1    
    74   37   38 am   BACKBONE|DICT|INTERRES
    75   37  116 1    
    76   38   39 2    
    77   38   40 1    
    78   40   41 1    
    79   40   42 1    
    80   40  117 1    
    81   41  118 1    
    82   41  119 1    
    83   41  120 1    
    84   42   43 am   BACKBONE|DICT|INTERRES
    85   42  121 1    
    86   43   44 2    
    87   43   45 1    
    88   45   46 1    
    89   45   47 1    
    90   45  122 1    
    91   46  123 1    
    92   46  124 1    
    93   46  125 1    
    94   47   48 am   BACKBONE|DICT|INTERRES
    95   47  126 1    
    96   48   49 2    
    97   48   50 1    
    98   50   51 1    
    99   50   52 1    
   100   50  127 1    
   101   51  128 1    
   102   51  129 1    
   103   51  130 1    
   104   52   53 am   BACKBONE|DICT|INTERRES
   105   52  131 1    
   106   53   54 2    
   107   53   55 1    
   108   55   56 1    
   109   55   59 1    
   110   55  132 1    
   111   56   57 1    
   112   56  133 1    
   113   56  134 1    
   114   57   58 1    
   115   58  135 1    
   116   58  136 1    
   117   59   60 am   BACKBONE|DICT|INTERRES
   118   59  137 1    
   119   60   61 2    
   120   60   62 1    
   121   62   63 1    
   122   62   64 1    
   123   62  138 1    
   124   63  139 1    
   125   63  140 1    
   126   63  141 1    
   127   64   65 am   BACKBONE|DICT|INTERRES
   128   64  142 1    
   129   65   66 2    
   130   65   67 1    
   131   67   68 1    
   132   67   69 1    
   133   67  143 1    
   134   68  144 1    
   135   68  145 1    
   136   68  146 1    
   137   69   70 am   BACKBONE|DICT|INTERRES
   138   69  147 1    
   139   70   71 2    
   140   70   72 1    
   141   72   73 1    
   142   72   74 1    
   143   72  148 1    
   144   73  149 1    
   145   73  150 1    
   146   73  151 1    
   147   74   75 am   BACKBONE|DICT|INTERRES
   148   74  152 1    
   149   75   76 2    
   150   75   77 1    
   151   77   78 1    
   152   77   79 1    
   153   77  153 1    
   154   78  154 1    
   155   78  155 1    
   156   78  156 1    
   157   79   80 am   BACKBONE|DICT|INTERRES
   158   79  157 1    
   159   80   81 2    
@<TRIPOS>SUBSTRUCTURE
     1 UNK         1 GROUP             0       ****    0 ROOT    
