@<TRIPOS>MOLECULE
3R207
157   159    1
SMALL
USER_CHARGES


@<TRIPOS>ATOM
      1 CA        -46.9151  -31.3928    3.5580 C.3       0 UNK        -0.1975 
      2 C         -47.5502  -30.0631    3.9355 C.2       0 UNK         0.4852 
      3 O         -47.8289  -29.2444    3.0578 O.2       0 UNK        -0.5216 
      4 N         -47.7699  -29.8286    5.2363 N.am      1 UNK        -0.4461 
      5 CA        -48.3777  -28.6185    5.8045 C.3       1 UNK         0.0864 
      6 C6        -49.0131  -28.9330    7.1857 C.3       14 UNK        -0.0898 
      7 S7        -50.1543  -27.6431    7.7900 S.3       14 UNK        -0.2598 
      8 C8        -51.7332  -28.1824    7.0696 C.3       14 UNK         0.0286 
      9 C9        -52.8922  -27.3896    7.6534 C.ar      14 UNK        -0.0844 
     10 C10       -53.1630  -26.0944    7.2015 C.ar      14 UNK        -0.0881 
     11 C11       -54.2239  -25.3585    7.7413 C.ar      14 UNK        -0.0643 
     12 C12       -55.0204  -25.9360    8.7366 C.ar      14 UNK        -0.0930 
     13 C13       -54.7720  -27.2392    9.1820 C.ar      14 UNK        -0.0827 
     14 C14       -53.7035  -27.9579    8.6391 C.ar      14 UNK        -0.1249 
     15 C15       -55.6862  -27.8834   10.2161 C.3       14 UNK         0.0141 
     16 S16       -55.1284  -27.5663   11.9178 S.3       14 UNK        -0.2313 
     17 C17       -53.8822  -28.8765   12.1766 C.3       14 UNK        -0.0915 
     18 CA        -54.3153  -29.9360   13.2254 C.3       13 UNK         0.0968 
     19 C         -53.2780  -31.0928   13.3358 C.2       13 UNK         0.5732 
     20 N         -52.7830  -31.4510   14.5162 N.am      13 UNK        -0.7310 
     21 O         -52.9238  -31.6953   12.3252 O.2       13 UNK        -0.5035 
     22 N         -54.6545  -29.3303   14.5238 N.am      13 UNK        -0.4233 
     23 C         -55.6088  -29.7971   15.3399 C.2       13 UNK         0.4989 
     24 O         -56.3476  -30.7408   15.0507 O.2       13 UNK        -0.4996 
     25 CA        -55.7727  -29.0972   16.7051 C.3       12 UNK         0.0216 
     26 CB        -56.5425  -29.9593   17.7287 C.3       12 UNK        -0.1964 
     27 N         -54.5155  -28.6164   17.2915 N.am      12 UNK        -0.4276 
     28 C         -53.4193  -29.3353   17.5862 C.2       12 UNK         0.5020 
     29 O         -53.3144  -30.5396   17.3474 O.2       12 UNK        -0.5489 
     30 CA        -52.2332  -28.5859   18.2277 C.3       11 UNK         0.0294 
     31 CB        -50.8818  -29.1220   17.7197 C.3       11 UNK        -0.2019 
     32 N         -52.3046  -27.1529   17.9415 N.am      11 UNK        -0.4493 
     33 C         -52.6023  -26.1843   18.8188 C.2       11 UNK         0.4932 
     34 O         -52.7560  -26.3768   20.0247 O.2       11 UNK        -0.5029 
     35 CA        -52.7939  -24.7596   18.2561 C.3       10 UNK         0.0280 
     36 CB        -51.5246  -23.9230   18.4791 C.3       10 UNK        -0.1976 
     37 N         -53.1486  -24.7333   16.8316 N.am      10 UNK        -0.4242 
     38 C         -54.2813  -25.2450   16.3202 C.2       10 UNK         0.5072 
     39 O         -55.1932  -25.6945   17.0145 O.2       10 UNK        -0.5224 
     40 CA        -54.3882  -25.3704   14.7877 C.3       9 UNK         0.0343 
     41 CB        -55.1827  -24.1939   14.2030 C.3       9 UNK        -0.2003 
     42 N         -53.0890  -25.4713   14.1140 N.am      9 UNK        -0.4272 
     43 C         -52.1699  -26.4197   14.3587 C.2       9 UNK         0.4988 
     44 O         -52.4095  -27.4117   15.0474 O.2       9 UNK        -0.5108 
     45 CA        -50.7357  -26.2214   13.8230 C.3       8 UNK         0.0248 
     46 CB        -50.4121  -27.2525   12.7307 C.3       8 UNK        -0.2001 
     47 N         -50.4512  -24.8755   13.3162 N.am      8 UNK        -0.4140 
     48 C         -50.5517  -23.7341   14.0188 C.2       8 UNK         0.5028 
     49 O         -50.7904  -23.6998   15.2270 O.2       8 UNK        -0.5428 
     50 CA        -50.4690  -22.4079   13.2353 C.3       7 UNK         0.0264 
     51 CB        -49.0620  -21.8022   13.3558 C.3       7 UNK        -0.1988 
     52 N         -50.8150  -22.5389   11.8154 N.am      7 UNK        -0.4454 
     53 C         -51.9666  -23.0290   11.3264 C.2       7 UNK         0.5027 
     54 O         -52.9455  -23.2735   12.0313 O.2       7 UNK        -0.5083 
     55 CA        -52.0167  -23.3767    9.8202 C.3       6 UNK         0.0844 
     56 C56       -53.0187  -22.4595    9.0777 C.3       14 UNK        -0.0967 
     57 S57       -53.1275  -22.8195    7.2909 S.3       14 UNK        -0.2604 
     58 C58       -54.5451  -23.9639    7.2131 C.3       14 UNK         0.0134 
     59 N         -50.6953  -23.4119    9.1736 N.am      6 UNK        -0.4116 
     60 C         -49.7032  -24.2588    9.4829 C.2       5 UNK         0.5034 
     61 O         -49.7854  -25.0835   10.3958 O.2       5 UNK        -0.5045 
     62 CA        -48.4187  -24.1350    8.6389 C.3       5 UNK         0.0224 
     63 CB        -47.8691  -22.6915    8.6091 C.3       5 UNK        -0.1978 
     64 N         -47.3705  -25.0814    9.0378 N.am      5 UNK        -0.4737 
     65 C         -46.6927  -25.1405   10.1956 C.2       4 UNK         0.5027 
     66 O         -46.7947  -24.3215   11.1097 O.2       4 UNK        -0.5211 
     67 CA        -45.7203  -26.3217   10.3519 C.3       4 UNK         0.0297 
     68 CB        -46.4810  -27.5809   10.7994 C.3       4 UNK        -0.1993 
     69 N         -45.0048  -26.6031    9.1051 N.am      4 UNK        -0.4486 
     70 C         -43.8923  -25.9675    8.7059 C.2       3 UNK         0.4961 
     71 O         -43.2903  -25.1372    9.3867 O.2       3 UNK        -0.5105 
     72 CA        -43.3930  -26.2841    7.2898 C.3       3 UNK         0.0299 
     73 CB        -42.6959  -27.6563    7.2304 C.3       3 UNK        -0.1972 
     74 N         -44.5267  -26.2270    6.3747 N.am      3 UNK        -0.4305 
     75 C         -44.5183  -26.1212    5.0467 C.2       2 UNK         0.5006 
     76 O         -43.4924  -26.1213    4.3637 O.2       2 UNK        -0.5106 
     77 CA        -45.9080  -25.9732    4.3855 C.3       2 UNK         0.0296 
     78 CB        -45.8149  -25.7774    2.8605 C.3       2 UNK        -0.2002 
     79 N         -46.8339  -27.0816    4.6579 N.am      2 UNK        -0.4032 
     80 C         -47.3761  -27.4383    5.8321 C.2       1 UNK         0.5000 
     81 O         -47.0983  -26.8883    6.9014 O.2       1 UNK        -0.5238 
     82 H82       -45.9685  -31.2240    3.0455 H         1 UNK         0.0889 
     83 H83       -47.5727  -31.9446    2.8868 H         1 UNK         0.0889 
     84 H84       -46.7222  -32.0155    4.4314 H         1 UNK         0.0889 
     85 H85       -47.4887  -30.5269    5.9104 H         1 UNK         0.3028 
     86 H86       -49.1885  -28.3156    5.1382 H         1 UNK         0.0864 
     87 H87       -48.2393  -29.0884    7.9398 H         1 UNK         0.0720 
     88 H88       -49.5647  -29.8732    7.1380 H         1 UNK         0.0720 
     89 H89       -51.7027  -28.0559    5.9864 H         1 UNK         0.0814 
     90 H90       -51.8754  -29.2484    7.2538 H         1 UNK         0.0814 
     91 H91       -52.5441  -25.6559    6.4307 H         1 UNK         0.1469 
     92 H92       -55.8504  -25.3804    9.1514 H         1 UNK         0.1381 
     93 H93       -53.5073  -28.9662    8.9751 H         1 UNK         0.1206 
     94 H94       -55.7661  -28.9579   10.0444 H         1 UNK         0.0813 
     95 H95       -56.6971  -27.4883   10.1055 H         1 UNK         0.0813 
     96 H96       -53.6692  -29.3576   11.2223 H         1 UNK         0.0638 
     97 H97       -52.9519  -28.4043   12.4809 H         1 UNK         0.0638 
     98 H98       -55.2150  -30.4059   12.8241 H         1 UNK         0.0568 
     99 H99       -53.0779  -31.0002   15.3753 H         1 UNK         0.3450 
    100 H100      -52.1194  -32.2073   14.5556 H         1 UNK         0.3450 
    101 H101      -54.0354  -28.5912   14.8390 H         1 UNK         0.2987 
    102 H102      -56.3731  -28.2075   16.5095 H         1 UNK         0.0766 
    103 H103      -56.6740  -29.4309   18.6730 H         1 UNK         0.0798 
    104 H104      -57.5379  -30.2126   17.3615 H         1 UNK         0.0798 
    105 H105      -56.0239  -30.8957   17.9375 H         1 UNK         0.0798 
    106 H106      -54.4987  -27.6224   17.4926 H         1 UNK         0.3198 
    107 H107      -52.2898  -28.7632   19.3035 H         1 UNK         0.0843 
    108 H108      -50.0474  -28.5795   18.1642 H         1 UNK         0.0831 
    109 H109      -50.7977  -29.0384   16.6353 H         1 UNK         0.0831 
    110 H110      -50.7546  -30.1745   17.9764 H         1 UNK         0.0831 
    111 H111      -52.2295  -26.9178   16.9566 H         1 UNK         0.3133 
    112 H112      -53.6116  -24.2946   18.8105 H         1 UNK         0.0566 
    113 H113      -50.6681  -24.3415   17.9487 H         1 UNK         0.0814 
    114 H114      -51.2644  -23.8811   19.5377 H         1 UNK         0.0814 
    115 H115      -51.6595  -22.8965   18.1376 H         1 UNK         0.0814 
    116 H116      -52.4358  -24.3823   16.1968 H         1 UNK         0.3091 
    117 H117      -54.9390  -26.2891   14.5811 H         1 UNK         0.0702 
    118 H118      -54.6627  -23.2458   14.3457 H         1 UNK         0.0785 
    119 H119      -56.1616  -24.1076   14.6765 H         1 UNK         0.0785 
    120 H120      -55.3511  -24.3261   13.1338 H         1 UNK         0.0785 
    121 H121      -52.8522  -24.7074   13.4893 H         1 UNK         0.2998 
    122 H122      -50.0619  -26.3969   14.6637 H         1 UNK         0.0697 
    123 H123      -50.5693  -28.2706   13.0900 H         1 UNK         0.0825 
    124 H124      -49.3720  -27.1795   12.4138 H         1 UNK         0.0825 
    125 H125      -51.0360  -27.1120   11.8467 H         1 UNK         0.0825 
    126 H126      -50.2349  -24.8159   12.3245 H         1 UNK         0.3029 
    127 H127      -51.1855  -21.7190   13.6876 H         1 UNK         0.0897 
    128 H128      -49.0091  -20.8204   12.8850 H         1 UNK         0.0792 
    129 H129      -48.7813  -21.6733   14.4023 H         1 UNK         0.0792 
    130 H130      -48.3076  -22.4400   12.8920 H         1 UNK         0.0792 
    131 H131      -50.0665  -22.3718   11.1594 H         1 UNK         0.3086 
    132 H132      -52.4072  -24.3954    9.7681 H         1 UNK         0.0583 
    133 H133      -54.0138  -22.5438    9.5197 H         1 UNK         0.1020 
    134 H134      -52.7297  -21.4127    9.1893 H         1 UNK         0.1020 
    135 H135      -55.3905  -23.5253    7.7454 H         1 UNK         0.0694 
    136 H136      -54.8569  -24.0555    6.1719 H         1 UNK         0.0694 
    137 H137      -50.5736  -22.7753    8.3997 H         1 UNK         0.2989 
    138 H138      -48.6939  -24.4170    7.6210 H         1 UNK         0.1055 
    139 H139      -46.9304  -22.6398    8.0570 H         1 UNK         0.0806 
    140 H140      -47.6853  -22.3045    9.6119 H         1 UNK         0.0806 
    141 H141      -48.5617  -22.0076    8.1182 H         1 UNK         0.0806 
    142 H142      -47.2366  -25.8427    8.3753 H         1 UNK         0.3061 
    143 H143      -44.9982  -26.0668   11.1310 H         1 UNK         0.0734 
    144 H144      -46.9848  -27.4087   11.7512 H         1 UNK         0.0832 
    145 H145      -47.2445  -27.8732   10.0766 H         1 UNK         0.0832 
    146 H146      -45.8064  -28.4257   10.9388 H         1 UNK         0.0832 
    147 H147      -45.4386  -27.2694    8.4807 H         1 UNK         0.3156 
    148 H148      -42.6783  -25.5103    7.0020 H         1 UNK         0.0589 
    149 H149      -43.3842  -28.4715    7.4562 H         1 UNK         0.0808 
    150 H150      -42.2696  -27.8436    6.2449 H         1 UNK         0.0808 
    151 H151      -41.8780  -27.7086    7.9502 H         1 UNK         0.0808 
    152 H152      -45.4489  -26.2439    6.8062 H         1 UNK         0.3098 
    153 H153      -46.3538  -25.0684    4.8040 H         1 UNK         0.0720 
    154 H154      -45.3984  -26.6567    2.3672 H         1 UNK         0.0791 
    155 H155      -46.7947  -25.5811    2.4245 H         1 UNK         0.0791 
    156 H156      -45.1769  -24.9284    2.6109 H         1 UNK         0.0791 
    157 H157      -47.1002  -27.6486    3.8570 H         1 UNK         0.3028 
@<TRIPOS>BOND
     1    1    2 1    
     2    1   82 1    
     3    1   83 1    
     4    1   84 1    
     5    2    3 2    
     6    2    4 am   BACKBONE|DICT|INTERRES
     7    4    5 1    
     8    4   85 1    
     9    5    6 1    
    10    5   80 1    
    11    5   86 1    
    12    6    7 1    
    13    6   87 1    
    14    6   88 1    
    15    7    8 1    
    16    8    9 1    
    17    8   89 1    
    18    8   90 1    
    19    9   10 ar   
    20    9   14 ar   
    21   10   11 ar   
    22   10   91 1    
    23   11   12 ar   
    24   11   58 1    
    25   12   13 ar   
    26   12   92 1    
    27   13   14 ar   
    28   13   15 1    
    29   14   93 1    
    30   15   16 1    
    31   15   94 1    
    32   15   95 1    
    33   16   17 1    
    34   17   18 1    
    35   17   96 1    
    36   17   97 1    
    37   18   19 1    
    38   18   22 1    
    39   18   98 1    
    40   19   20 am   BACKBONE|DICT|INTERRES
    41   19   21 2    
    42   20   99 1    
    43   20  100 1    
    44   22   23 am   BACKBONE|DICT|INTERRES
    45   22  101 1    
    46   23   24 2    
    47   23   25 1    
    48   25   26 1    
    49   25   27 1    
    50   25  102 1    
    51   26  103 1    
    52   26  104 1    
    53   26  105 1    
    54   27   28 am   BACKBONE|DICT|INTERRES
    55   27  106 1    
    56   28   29 2    
    57   28   30 1    
    58   30   31 1    
    59   30   32 1    
    60   30  107 1    
    61   31  108 1    
    62   31  109 1    
    63   31  110 1    
    64   32   33 am   BACKBONE|DICT|INTERRES
    65   32  111 1    
    66   33   34 2    
    67   33   35 1    
    68   35   36 1    
    69   35   37 1    
    70   35  112 1    
    71   36  113 1    
    72   36  114 1    
    73   36  115 1    
    74   37   38 am   BACKBONE|DICT|INTERRES
    75   37  116 1    
    76   38   39 2    
    77   38   40 1    
    78   40   41 1    
    79   40   42 1    
    80   40  117 1    
    81   41  118 1    
    82   41  119 1    
    83   41  120 1    
    84   42   43 am   BACKBONE|DICT|INTERRES
    85   42  121 1    
    86   43   44 2    
    87   43   45 1    
    88   45   46 1    
    89   45   47 1    
    90   45  122 1    
    91   46  123 1    
    92   46  124 1    
    93   46  125 1    
    94   47   48 am   BACKBONE|DICT|INTERRES
    95   47  126 1    
    96   48   49 2    
    97   48   50 1    
    98   50   51 1    
    99   50   52 1    
   100   50  127 1    
   101   51  128 1    
   102   51  129 1    
   103   51  130 1    
   104   52   53 am   BACKBONE|DICT|INTERRES
   105   52  131 1    
   106   53   54 2    
   107   53   55 1    
   108   55   56 1    
   109   55   59 1    
   110   55  132 1    
   111   56   57 1    
   112   56  133 1    
   113   56  134 1    
   114   57   58 1    
   115   58  135 1    
   116   58  136 1    
   117   59   60 am   BACKBONE|DICT|INTERRES
   118   59  137 1    
   119   60   61 2    
   120   60   62 1    
   121   62   63 1    
   122   62   64 1    
   123   62  138 1    
   124   63  139 1    
   125   63  140 1    
   126   63  141 1    
   127   64   65 am   BACKBONE|DICT|INTERRES
   128   64  142 1    
   129   65   66 2    
   130   65   67 1    
   131   67   68 1    
   132   67   69 1    
   133   67  143 1    
   134   68  144 1    
   135   68  145 1    
   136   68  146 1    
   137   69   70 am   BACKBONE|DICT|INTERRES
   138   69  147 1    
   139   70   71 2    
   140   70   72 1    
   141   72   73 1    
   142   72   74 1    
   143   72  148 1    
   144   73  149 1    
   145   73  150 1    
   146   73  151 1    
   147   74   75 am   BACKBONE|DICT|INTERRES
   148   74  152 1    
   149   75   76 2    
   150   75   77 1    
   151   77   78 1    
   152   77   79 1    
   153   77  153 1    
   154   78  154 1    
   155   78  155 1    
   156   78  156 1    
   157   79   80 am   BACKBONE|DICT|INTERRES
   158   79  157 1    
   159   80   81 2    
@<TRIPOS>SUBSTRUCTURE
     1 UNK         1 GROUP             0       ****    0 ROOT    
