@<TRIPOS>MOLECULE
3R207
157   159    1
SMALL
USER_CHARGES


@<TRIPOS>ATOM
      1 CA        -51.2973  -27.1651    0.5068 C.3       0 UNK        -0.1975 
      2 C         -50.7051  -27.6357    1.8272 C.2       0 UNK         0.4852 
      3 O         -50.0541  -28.6802    1.8617 O.2       0 UNK        -0.5216 
      4 N         -50.9309  -26.8701    2.9056 N.am      1 UNK        -0.4461 
      5 CA        -50.4456  -27.1170    4.2705 C.3       1 UNK         0.0864 
      6 C6        -51.0752  -28.3837    4.9127 C.3       14 UNK        -0.0898 
      7 S7        -51.1404  -28.2738    6.7330 S.3       14 UNK        -0.2598 
      8 C8        -50.2568  -29.7956    7.2025 C.3       14 UNK         0.0286 
      9 C9        -50.2063  -29.9773    8.7134 C.ar      14 UNK        -0.0844 
     10 C10       -48.9812  -30.0058    9.3855 C.ar      14 UNK        -0.0881 
     11 C11       -48.9312  -30.1810   10.7726 C.ar      14 UNK        -0.0643 
     12 C12       -50.1255  -30.3096   11.4922 C.ar      14 UNK        -0.0930 
     13 C13       -51.3589  -30.2912   10.8300 C.ar      14 UNK        -0.0827 
     14 C14       -51.3883  -30.1409    9.4404 C.ar      14 UNK        -0.1249 
     15 C15       -52.6640  -30.4428   11.6016 C.3       14 UNK         0.0141 
     16 S16       -53.6958  -28.9521   11.4504 S.3       14 UNK        -0.2313 
     17 C17       -55.1563  -29.4144   12.4322 C.3       14 UNK        -0.0915 
     18 CA        -56.2121  -28.2783   12.4443 C.3       13 UNK         0.0968 
     19 C         -57.5386  -28.7523   13.0961 C.2       13 UNK         0.5732 
     20 N         -58.4122  -29.3843   12.3234 N.am      13 UNK        -0.7310 
     21 O         -57.7723  -28.5931   14.2924 O.2       13 UNK        -0.5035 
     22 N         -55.6834  -27.0574   13.0670 N.am      13 UNK        -0.4233 
     23 C         -56.1895  -25.8299   12.8986 C.2       13 UNK         0.4989 
     24 O         -57.1478  -25.5821   12.1632 O.2       13 UNK        -0.4996 
     25 CA        -55.4888  -24.6859   13.6615 C.3       12 UNK         0.0216 
     26 CB        -56.2835  -23.3619   13.6522 C.3       12 UNK        -0.1964 
     27 N         -55.1022  -25.0680   15.0260 N.am      12 UNK        -0.4276 
     28 C         -55.9230  -25.4295   16.0241 C.2       12 UNK         0.5020 
     29 O         -57.1526  -25.3833   15.9507 O.2       12 UNK        -0.5489 
     30 CA        -55.2613  -25.9180   17.3309 C.3       11 UNK         0.0294 
     31 CB        -56.1974  -26.8224   18.1606 C.3       11 UNK        -0.2019 
     32 N         -53.9603  -26.5761   17.1490 N.am      11 UNK        -0.4493 
     33 C         -53.6709  -27.6456   16.3932 C.2       11 UNK         0.4932 
     34 O         -54.4961  -28.2151   15.6799 O.2       11 UNK        -0.5029 
     35 CA        -52.2161  -28.1638   16.4444 C.3       10 UNK         0.0280 
     36 CB        -51.9283  -29.1976   15.3387 C.3       10 UNK        -0.1976 
     37 N         -51.2219  -27.0894   16.3568 N.am      10 UNK        -0.4242 
     38 C         -50.8935  -26.2338   17.3348 C.2       10 UNK         0.5072 
     39 O         -51.3680  -26.2858   18.4703 O.2       10 UNK        -0.5224 
     40 CA        -49.9382  -25.0832   16.9726 C.3       9 UNK         0.0343 
     41 CB        -48.4753  -25.5424   17.0642 C.3       9 UNK        -0.2003 
     42 N         -50.2053  -24.5083   15.6495 N.am      9 UNK        -0.4272 
     43 C         -51.3600  -23.9203   15.2948 C.2       9 UNK         0.4988 
     44 O         -52.3172  -23.7636   16.0540 O.2       9 UNK        -0.5108 
     45 CA        -51.4897  -23.4651   13.8327 C.3       8 UNK         0.0248 
     46 CB        -50.7401  -22.1436   13.6018 C.3       8 UNK        -0.2001 
     47 N         -51.0237  -24.4785   12.8839 N.am      8 UNK        -0.4140 
     48 C         -51.5553  -25.7038   12.7535 C.2       8 UNK         0.5028 
     49 O         -52.5438  -26.0906   13.3767 O.2       8 UNK        -0.5428 
     50 CA        -50.8227  -26.6793   11.8185 C.3       7 UNK         0.0264 
     51 CB        -51.1226  -26.3794   10.3424 C.3       7 UNK        -0.1988 
     52 N         -49.3775  -26.6884   12.0463 N.am      7 UNK        -0.4454 
     53 C         -48.8057  -27.0801   13.1956 C.2       7 UNK         0.5027 
     54 O         -49.4341  -27.5270   14.1539 O.2       7 UNK        -0.5083 
     55 CA        -47.2850  -26.8879   13.3375 C.3       6 UNK         0.0844 
     56 C56       -46.4810  -28.1764   13.0449 C.3       14 UNK        -0.0967 
     57 S57       -46.5773  -28.7792   11.3256 S.3       14 UNK        -0.2604 
     58 C58       -47.5834  -30.2947   11.4755 C.3       14 UNK         0.0134 
     59 N         -46.8108  -25.7073   12.6094 N.am      6 UNK        -0.4116 
     60 C         -47.0573  -24.4531   13.0195 C.2       5 UNK         0.5034 
     61 O         -47.6892  -24.1787   14.0411 O.2       5 UNK        -0.5045 
     62 CA        -46.5461  -23.3112   12.1279 C.3       5 UNK         0.0224 
     63 CB        -45.0195  -23.1666   12.2384 C.3       5 UNK        -0.1978 
     64 N         -46.9293  -23.4620   10.7228 N.am      5 UNK        -0.4737 
     65 C         -48.1918  -23.4825   10.2723 C.2       4 UNK         0.5027 
     66 O         -49.1788  -23.3853   10.9990 O.2       4 UNK        -0.5211 
     67 CA        -48.3932  -23.6553    8.7572 C.3       4 UNK         0.0297 
     68 CB        -48.5213  -22.2858    8.0730 C.3       4 UNK        -0.1993 
     69 N         -47.3381  -24.4299    8.0988 N.am      4 UNK        -0.4486 
     70 C         -47.0407  -25.7084    8.3635 C.2       3 UNK         0.4961 
     71 O         -47.6014  -26.3673    9.2398 O.2       3 UNK        -0.5105 
     72 CA        -45.9461  -26.3381    7.4811 C.3       3 UNK         0.0299 
     73 CB        -45.5727  -27.7656    7.9141 C.3       3 UNK        -0.1972 
     74 N         -46.3665  -26.3679    6.0809 N.am      3 UNK        -0.4305 
     75 C         -46.3157  -25.3454    5.2204 C.2       2 UNK         0.5006 
     76 O         -45.8594  -24.2379    5.5088 O.2       2 UNK        -0.5106 
     77 CA        -46.9136  -25.5783    3.8214 C.3       2 UNK         0.0296 
     78 CB        -46.0690  -26.5710    2.9972 C.3       2 UNK        -0.2002 
     79 N         -48.3350  -25.9558    3.8459 N.am      2 UNK        -0.4032 
     80 C         -48.9020  -27.0660    4.3469 C.2       1 UNK         0.5000 
     81 O         -48.2634  -28.0000    4.8395 O.2       1 UNK        -0.5238 
     82 H82       -51.8533  -26.2342    0.6160 H         1 UNK         0.0889 
     83 H83       -51.9758  -27.9200    0.1103 H         1 UNK         0.0889 
     84 H84       -50.5044  -27.0027   -0.2228 H         1 UNK         0.0889 
     85 H85       -51.4817  -26.0296    2.7934 H         1 UNK         0.3028 
     86 H86       -50.7940  -26.2568    4.8452 H         1 UNK         0.0864 
     87 H87       -52.1059  -28.4974    4.5734 H         1 UNK         0.0720 
     88 H88       -50.5599  -29.2912    4.5922 H         1 UNK         0.0720 
     89 H89       -49.2501  -29.7649    6.7821 H         1 UNK         0.0814 
     90 H90       -50.7563  -30.6569    6.7568 H         1 UNK         0.0814 
     91 H91       -48.0592  -29.9007    8.8314 H         1 UNK         0.1469 
     92 H92       -50.0943  -30.4363   12.5658 H         1 UNK         0.1381 
     93 H93       -52.3387  -30.1263    8.9244 H         1 UNK         0.1206 
     94 H94       -52.4715  -30.6401   12.6570 H         1 UNK         0.0813 
     95 H95       -53.2121  -31.3035   11.2162 H         1 UNK         0.0813 
     96 H96       -54.8402  -29.6647   13.4462 H         1 UNK         0.0638 
     97 H97       -55.5745  -30.3258   12.0009 H         1 UNK         0.0638 
     98 H98       -56.4392  -28.0327   11.4047 H         1 UNK         0.0568 
     99 H99       -59.2742  -29.7140   12.7287 H         1 UNK         0.3450 
    100 H100      -58.2301  -29.5339   11.3432 H         1 UNK         0.3450 
    101 H101      -54.9241  -27.1923   13.7236 H         1 UNK         0.2987 
    102 H102      -54.5616  -24.4989   13.1211 H         1 UNK         0.0766 
    103 H103      -55.7498  -22.5760   14.1865 H         1 UNK         0.0798 
    104 H104      -57.2664  -23.4730   14.1106 H         1 UNK         0.0798 
    105 H105      -56.4410  -23.0097   12.6321 H         1 UNK         0.0798 
    106 H106      -54.1051  -25.1509   15.1876 H         1 UNK         0.3198 
    107 H107      -55.0638  -25.0193   17.9172 H         1 UNK         0.0843 
    108 H108      -56.4861  -27.7157   17.6050 H         1 UNK         0.0831 
    109 H109      -57.1144  -26.2974   18.4312 H         1 UNK         0.0831 
    110 H110      -55.7239  -27.1415   19.0889 H         1 UNK         0.0831 
    111 H111      -53.1944  -26.1949   17.6972 H         1 UNK         0.3133 
    112 H112      -52.0929  -28.6653   17.4062 H         1 UNK         0.0566 
    113 H113      -52.0498  -28.7605   14.3463 H         1 UNK         0.0814 
    114 H114      -50.9120  -29.5851   15.4105 H         1 UNK         0.0814 
    115 H115      -52.6050  -30.0502   15.4068 H         1 UNK         0.0814 
    116 H116      -50.7534  -26.9966   15.4588 H         1 UNK         0.3091 
    117 H117      -50.0880  -24.2874   17.7051 H         1 UNK         0.0702 
    118 H118      -47.7862  -24.7326   16.8238 H         1 UNK         0.0785 
    119 H119      -48.2710  -26.3719   16.3884 H         1 UNK         0.0785 
    120 H120      -48.2383  -25.8818   18.0734 H         1 UNK         0.0785 
    121 H121      -49.4511  -24.5514   14.9710 H         1 UNK         0.2998 
    122 H122      -52.5479  -23.2890   13.6332 H         1 UNK         0.0697 
    123 H123      -49.6642  -22.2585   13.7380 H         1 UNK         0.0825 
    124 H124      -51.0788  -21.3746   14.2973 H         1 UNK         0.0825 
    125 H125      -50.9082  -21.7656   12.5932 H         1 UNK         0.0825 
    126 H126      -50.2375  -24.2177   12.2913 H         1 UNK         0.3029 
    127 H127      -51.1867  -27.6814   12.0443 H         1 UNK         0.0897 
    128 H128      -52.1909  -26.4639   10.1404 H         1 UNK         0.0792 
    129 H129      -50.6129  -27.0854    9.6857 H         1 UNK         0.0792 
    130 H130      -50.8145  -25.3738   10.0600 H         1 UNK         0.0792 
    131 H131      -48.7859  -26.3838   11.2826 H         1 UNK         0.3086 
    132 H132      -47.1112  -26.6810   14.3952 H         1 UNK         0.0583 
    133 H133      -45.4282  -27.9956   13.2671 H         1 UNK         0.1020 
    134 H134      -46.7800  -28.9634   13.7388 H         1 UNK         0.1020 
    135 H135      -47.0278  -31.1173   11.0233 H         1 UNK         0.0694 
    136 H136      -47.7190  -30.5701   12.5216 H         1 UNK         0.0694 
    137 H137      -46.3375  -25.8681   11.7318 H         1 UNK         0.2989 
    138 H138      -47.0015  -22.3883   12.4948 H         1 UNK         0.1055 
    139 H139      -44.7136  -23.0478   13.2790 H         1 UNK         0.0806 
    140 H140      -44.6648  -22.2888   11.6978 H         1 UNK         0.0806 
    141 H141      -44.4966  -24.0381   11.8425 H         1 UNK         0.0806 
    142 H142      -46.1841  -23.5511   10.0476 H         1 UNK         0.3061 
    143 H143      -49.3304  -24.1957    8.6124 H         1 UNK         0.0734 
    144 H144      -49.3198  -21.6969    8.5268 H         1 UNK         0.0832 
    145 H145      -48.7602  -22.3906    7.0145 H         1 UNK         0.0832 
    146 H146      -47.6015  -21.7053    8.1549 H         1 UNK         0.0832 
    147 H147      -46.8368  -23.9826    7.3383 H         1 UNK         0.3156 
    148 H148      -45.0512  -25.7190    7.5716 H         1 UNK         0.0589 
    149 H149      -46.4332  -28.4344    7.8837 H         1 UNK         0.0808 
    150 H150      -44.7978  -28.1862    7.2734 H         1 UNK         0.0808 
    151 H151      -45.1856  -27.7712    8.9330 H         1 UNK         0.0808 
    152 H152      -46.8624  -27.2006    5.7680 H         1 UNK         0.3098 
    153 H153      -46.8743  -24.6183    3.3037 H         1 UNK         0.0720 
    154 H154      -46.4560  -26.6703    1.9831 H         1 UNK         0.0791 
    155 H155      -46.0457  -27.5658    3.4428 H         1 UNK         0.0791 
    156 H156      -45.0363  -26.2289    2.9180 H         1 UNK         0.0791 
    157 H157      -48.9601  -25.2564    3.4695 H         1 UNK         0.3028 
@<TRIPOS>BOND
     1    1    2 1    
     2    1   82 1    
     3    1   83 1    
     4    1   84 1    
     5    2    3 2    
     6    2    4 am   BACKBONE|DICT|INTERRES
     7    4    5 1    
     8    4   85 1    
     9    5    6 1    
    10    5   80 1    
    11    5   86 1    
    12    6    7 1    
    13    6   87 1    
    14    6   88 1    
    15    7    8 1    
    16    8    9 1    
    17    8   89 1    
    18    8   90 1    
    19    9   10 ar   
    20    9   14 ar   
    21   10   11 ar   
    22   10   91 1    
    23   11   12 ar   
    24   11   58 1    
    25   12   13 ar   
    26   12   92 1    
    27   13   14 ar   
    28   13   15 1    
    29   14   93 1    
    30   15   16 1    
    31   15   94 1    
    32   15   95 1    
    33   16   17 1    
    34   17   18 1    
    35   17   96 1    
    36   17   97 1    
    37   18   19 1    
    38   18   22 1    
    39   18   98 1    
    40   19   20 am   BACKBONE|DICT|INTERRES
    41   19   21 2    
    42   20   99 1    
    43   20  100 1    
    44   22   23 am   BACKBONE|DICT|INTERRES
    45   22  101 1    
    46   23   24 2    
    47   23   25 1    
    48   25   26 1    
    49   25   27 1    
    50   25  102 1    
    51   26  103 1    
    52   26  104 1    
    53   26  105 1    
    54   27   28 am   BACKBONE|DICT|INTERRES
    55   27  106 1    
    56   28   29 2    
    57   28   30 1    
    58   30   31 1    
    59   30   32 1    
    60   30  107 1    
    61   31  108 1    
    62   31  109 1    
    63   31  110 1    
    64   32   33 am   BACKBONE|DICT|INTERRES
    65   32  111 1    
    66   33   34 2    
    67   33   35 1    
    68   35   36 1    
    69   35   37 1    
    70   35  112 1    
    71   36  113 1    
    72   36  114 1    
    73   36  115 1    
    74   37   38 am   BACKBONE|DICT|INTERRES
    75   37  116 1    
    76   38   39 2    
    77   38   40 1    
    78   40   41 1    
    79   40   42 1    
    80   40  117 1    
    81   41  118 1    
    82   41  119 1    
    83   41  120 1    
    84   42   43 am   BACKBONE|DICT|INTERRES
    85   42  121 1    
    86   43   44 2    
    87   43   45 1    
    88   45   46 1    
    89   45   47 1    
    90   45  122 1    
    91   46  123 1    
    92   46  124 1    
    93   46  125 1    
    94   47   48 am   BACKBONE|DICT|INTERRES
    95   47  126 1    
    96   48   49 2    
    97   48   50 1    
    98   50   51 1    
    99   50   52 1    
   100   50  127 1    
   101   51  128 1    
   102   51  129 1    
   103   51  130 1    
   104   52   53 am   BACKBONE|DICT|INTERRES
   105   52  131 1    
   106   53   54 2    
   107   53   55 1    
   108   55   56 1    
   109   55   59 1    
   110   55  132 1    
   111   56   57 1    
   112   56  133 1    
   113   56  134 1    
   114   57   58 1    
   115   58  135 1    
   116   58  136 1    
   117   59   60 am   BACKBONE|DICT|INTERRES
   118   59  137 1    
   119   60   61 2    
   120   60   62 1    
   121   62   63 1    
   122   62   64 1    
   123   62  138 1    
   124   63  139 1    
   125   63  140 1    
   126   63  141 1    
   127   64   65 am   BACKBONE|DICT|INTERRES
   128   64  142 1    
   129   65   66 2    
   130   65   67 1    
   131   67   68 1    
   132   67   69 1    
   133   67  143 1    
   134   68  144 1    
   135   68  145 1    
   136   68  146 1    
   137   69   70 am   BACKBONE|DICT|INTERRES
   138   69  147 1    
   139   70   71 2    
   140   70   72 1    
   141   72   73 1    
   142   72   74 1    
   143   72  148 1    
   144   73  149 1    
   145   73  150 1    
   146   73  151 1    
   147   74   75 am   BACKBONE|DICT|INTERRES
   148   74  152 1    
   149   75   76 2    
   150   75   77 1    
   151   77   78 1    
   152   77   79 1    
   153   77  153 1    
   154   78  154 1    
   155   78  155 1    
   156   78  156 1    
   157   79   80 am   BACKBONE|DICT|INTERRES
   158   79  157 1    
   159   80   81 2    
@<TRIPOS>SUBSTRUCTURE
     1 UNK         1 GROUP             0       ****    0 ROOT    
