@<TRIPOS>MOLECULE
3R207
157   159    1
SMALL
USER_CHARGES


@<TRIPOS>ATOM
      1 CA        -53.0347  -28.0048    2.7544 C.3       0 UNK        -0.1975 
      2 C         -51.6090  -28.2444    2.2661 C.2       0 UNK         0.4852 
      3 O         -51.3788  -28.2368    1.0582 O.2       0 UNK        -0.5216 
      4 N         -50.6215  -28.4523    3.1450 N.am      1 UNK        -0.4461 
      5 CA        -50.6885  -28.4602    4.6062 C.3       1 UNK         0.0864 
      6 C6        -51.2829  -29.7812    5.1794 C.3       14 UNK        -0.0898 
      7 S7        -51.9445  -29.5858    6.8713 S.3       14 UNK        -0.2598 
      8 C8        -53.6348  -29.0091    6.5340 C.3       14 UNK         0.0286 
      9 C9        -54.1272  -28.0406    7.5996 C.ar      14 UNK        -0.0844 
     10 C10       -53.5840  -26.7528    7.6789 C.ar      14 UNK        -0.0881 
     11 C11       -54.0882  -25.8231    8.5936 C.ar      14 UNK        -0.0643 
     12 C12       -55.1425  -26.1942    9.4339 C.ar      14 UNK        -0.0930 
     13 C13       -55.6900  -27.4789    9.3694 C.ar      14 UNK        -0.0827 
     14 C14       -55.1699  -28.4032    8.4584 C.ar      14 UNK        -0.1249 
     15 C15       -56.8910  -27.8321   10.2347 C.3       14 UNK         0.0141 
     16 S16       -56.4173  -28.2297   11.9436 S.3       14 UNK        -0.2313 
     17 C17       -56.1232  -30.0273   11.8348 C.3       14 UNK        -0.0915 
     18 CA        -55.0505  -30.4917   12.8595 C.3       13 UNK         0.0968 
     19 C         -55.0108  -32.0363   13.0760 C.2       13 UNK         0.5732 
     20 N         -53.8785  -32.6178   13.4581 N.am      13 UNK        -0.7310 
     21 O         -56.0238  -32.7180   12.9342 O.2       13 UNK        -0.5035 
     22 N         -53.7382  -29.8738   12.6173 N.am      13 UNK        -0.4233 
     23 C         -52.9137  -30.1326   11.5901 C.2       13 UNK         0.4989 
     24 O         -53.1787  -30.9129   10.6752 O.2       13 UNK        -0.4996 
     25 CA        -51.5443  -29.4226   11.5832 C.3       12 UNK         0.0216 
     26 CB        -51.5683  -28.2591   10.5791 C.3       12 UNK        -0.1964 
     27 N         -51.1248  -28.9183   12.8953 N.am      12 UNK        -0.4276 
     28 C         -50.9269  -29.6553   13.9993 C.2       12 UNK         0.5020 
     29 O         -50.9261  -30.8868   14.0094 O.2       12 UNK        -0.5489 
     30 CA        -50.7876  -28.8858   15.3283 C.3       11 UNK         0.0294 
     31 CB        -49.3205  -28.8285   15.7833 C.3       11 UNK        -0.2019 
     32 N         -51.3473  -27.5274   15.2698 N.am      11 UNK        -0.4493 
     33 C         -52.6489  -27.2503   15.0940 C.2       11 UNK         0.4932 
     34 O         -53.5144  -28.1243   15.0206 O.2       11 UNK        -0.5029 
     35 CA        -53.0387  -25.7726   14.8918 C.3       10 UNK         0.0280 
     36 CB        -54.5472  -25.5174   15.0987 C.3       10 UNK        -0.1976 
     37 N         -52.2323  -24.8256   15.6709 N.am      10 UNK        -0.4242 
     38 C         -52.1467  -24.7576   17.0085 C.2       10 UNK         0.5072 
     39 O         -52.7255  -25.5324   17.7734 O.2       10 UNK        -0.5224 
     40 CA        -51.2885  -23.6131   17.5863 C.3       9 UNK         0.0343 
     41 CB        -51.0511  -23.7503   19.1059 C.3       9 UNK        -0.2003 
     42 N         -50.0119  -23.4135   16.8912 N.am      9 UNK        -0.4272 
     43 C         -49.0229  -24.3013   16.7173 C.2       9 UNK         0.4988 
     44 O         -49.0879  -25.4785   17.0747 O.2       9 UNK        -0.5108 
     45 CA        -47.7391  -23.7652   16.0465 C.3       8 UNK         0.0248 
     46 CB        -46.6445  -24.8418   15.9322 C.3       8 UNK        -0.2001 
     47 N         -47.9900  -23.1916   14.7203 N.am      8 UNK        -0.4140 
     48 C         -48.5811  -22.0129   14.4775 C.2       8 UNK         0.5028 
     49 O         -48.9369  -21.2358   15.3655 O.2       8 UNK        -0.5428 
     50 CA        -48.8783  -21.6604   13.0092 C.3       7 UNK         0.0264 
     51 CB        -47.6518  -21.0164   12.3441 C.3       7 UNK        -0.1988 
     52 N         -49.3255  -22.8087   12.2152 N.am      7 UNK        -0.4454 
     53 C         -50.4301  -23.5303   12.4644 C.2       7 UNK         0.5027 
     54 O         -51.2166  -23.2834   13.3814 O.2       7 UNK        -0.5083 
     55 CA        -50.6513  -24.7857   11.5902 C.3       6 UNK         0.0844 
     56 C56       -51.2057  -24.4549   10.1839 C.3       14 UNK        -0.0967 
     57 S57       -52.9355  -23.8829   10.2450 S.3       14 UNK        -0.2604 
     58 C58       -53.5614  -24.3929    8.6125 C.3       14 UNK         0.0134 
     59 N         -49.4371  -25.5992   11.5226 N.am      6 UNK        -0.4116 
     60 C         -48.8492  -26.1747   12.5798 C.2       5 UNK         0.5034 
     61 O         -49.3279  -26.1651   13.7114 O.2       5 UNK        -0.5045 
     62 CA        -47.4909  -26.8498   12.3418 C.3       5 UNK         0.0224 
     63 CB        -47.6721  -28.3063   11.8896 C.3       5 UNK        -0.1978 
     64 N         -46.6829  -26.1150   11.3654 N.am      5 UNK        -0.4737 
     65 C         -46.1139  -24.9265   11.6134 C.2       4 UNK         0.5027 
     66 O         -46.1730  -24.3577   12.7020 O.2       4 UNK        -0.5211 
     67 CA        -45.3966  -24.2381   10.4406 C.3       4 UNK         0.0297 
     68 CB        -43.9702  -24.7870   10.2812 C.3       4 UNK        -0.1993 
     69 N         -46.1225  -24.3724    9.1750 N.am      4 UNK        -0.4486 
     70 C         -47.3265  -23.8350    8.9319 C.2       3 UNK         0.4961 
     71 O         -47.9416  -23.1365    9.7369 O.2       3 UNK        -0.5105 
     72 CA        -47.9810  -24.1796    7.5827 C.3       3 UNK         0.0299 
     73 CB        -47.5037  -23.2125    6.4883 C.3       3 UNK        -0.1972 
     74 N         -47.7597  -25.5645    7.1490 N.am      3 UNK        -0.4305 
     75 C         -48.1091  -26.6510    7.8506 C.2       2 UNK         0.5006 
     76 O         -48.6374  -26.6075    8.9628 O.2       2 UNK        -0.5106 
     77 CA        -47.8597  -28.0069    7.1812 C.3       2 UNK         0.0296 
     78 CB        -47.5560  -29.1132    8.2068 C.3       2 UNK        -0.2002 
     79 N         -49.0603  -28.3699    6.4395 N.am      2 UNK        -0.4032 
     80 C         -49.2851  -28.1098    5.1474 C.2       1 UNK         0.5000 
     81 O         -48.4434  -27.6000    4.3988 O.2       1 UNK        -0.5238 
     82 H82       -53.0728  -27.2313    3.5177 H         1 UNK         0.0889 
     83 H83       -53.4690  -28.9205    3.1492 H         1 UNK         0.0889 
     84 H84       -53.6650  -27.6743    1.9304 H         1 UNK         0.0889 
     85 H85       -49.6722  -28.5257    2.7999 H         1 UNK         0.3028 
     86 H86       -51.3211  -27.6260    4.9116 H         1 UNK         0.0864 
     87 H87       -50.5327  -30.5743    5.1819 H         1 UNK         0.0720 
     88 H88       -52.0884  -30.1565    4.5483 H         1 UNK         0.0720 
     89 H89       -54.2948  -29.8740    6.4527 H         1 UNK         0.0814 
     90 H90       -53.6747  -28.5039    5.5700 H         1 UNK         0.0814 
     91 H91       -52.7876  -26.4677    7.0056 H         1 UNK         0.1469 
     92 H92       -55.5535  -25.4715   10.1257 H         1 UNK         0.1381 
     93 H93       -55.6012  -29.3929    8.3936 H         1 UNK         0.1206 
     94 H94       -57.4540  -28.6607    9.8020 H         1 UNK         0.0813 
     95 H95       -57.5776  -26.9844   10.2553 H         1 UNK         0.0813 
     96 H96       -57.0802  -30.5181   12.0187 H         1 UNK         0.0638 
     97 H97       -55.8282  -30.2978   10.8201 H         1 UNK         0.0638 
     98 H98       -55.3611  -30.1108   13.8330 H         1 UNK         0.0568 
     99 H99       -53.8628  -33.6139   13.6082 H         1 UNK         0.3450 
    100 H100      -53.0379  -32.0729   13.5877 H         1 UNK         0.3450 
    101 H101      -53.4436  -29.2249   13.3382 H         1 UNK         0.2987 
    102 H102      -50.8018  -30.1517   11.2529 H         1 UNK         0.0766 
    103 H103      -52.2322  -27.4558   10.9009 H         1 UNK         0.0798 
    104 H104      -51.9274  -28.5929    9.6063 H         1 UNK         0.0798 
    105 H105      -50.5748  -27.8452   10.4207 H         1 UNK         0.0798 
    106 H106      -51.0830  -27.9157   13.0061 H         1 UNK         0.3198 
    107 H107      -51.3519  -29.4409   16.0808 H         1 UNK         0.0843 
    108 H108      -49.2256  -28.3342   16.7505 H         1 UNK         0.0831 
    109 H109      -48.6911  -28.2925   15.0740 H         1 UNK         0.0831 
    110 H110      -48.9070  -29.8322   15.8900 H         1 UNK         0.0831 
    111 H111      -50.6764  -26.7650   15.2626 H         1 UNK         0.3133 
    112 H112      -52.8263  -25.5529   13.8467 H         1 UNK         0.0566 
    113 H113      -54.8012  -24.4728   14.9190 H         1 UNK         0.0814 
    114 H114      -55.1435  -26.1161   14.4084 H         1 UNK         0.0814 
    115 H115      -54.8670  -25.7735   16.1091 H         1 UNK         0.0814 
    116 H116      -51.7123  -24.1518   15.1144 H         1 UNK         0.3091 
    117 H117      -51.8639  -22.7000   17.4268 H         1 UNK         0.0702 
    118 H118      -50.4774  -22.9095   19.4958 H         1 UNK         0.0785 
    119 H119      -50.5110  -24.6664   19.3482 H         1 UNK         0.0785 
    120 H120      -51.9959  -23.7753   19.6504 H         1 UNK         0.0785 
    121 H121      -49.8499  -22.4825   16.5137 H         1 UNK         0.2998 
    122 H122      -47.3513  -22.9734   16.6906 H         1 UNK         0.0697 
    123 H123      -45.7349  -24.4407   15.4849 H         1 UNK         0.0825 
    124 H124      -46.3774  -25.2342   16.9141 H         1 UNK         0.0825 
    125 H125      -46.9754  -25.6837   15.3248 H         1 UNK         0.0825 
    126 H126      -47.6803  -23.7457   13.9283 H         1 UNK         0.3029 
    127 H127      -49.6893  -20.9291   13.0077 H         1 UNK         0.0897 
    128 H128      -47.8782  -20.6875   11.3296 H         1 UNK         0.0792 
    129 H129      -47.3188  -20.1407   12.9028 H         1 UNK         0.0792 
    130 H130      -46.8113  -21.7089   12.2900 H         1 UNK         0.0792 
    131 H131      -48.7510  -23.0548   11.4108 H         1 UNK         0.3086 
    132 H132      -51.3948  -25.4041   12.0939 H         1 UNK         0.0583 
    133 H133      -50.5967  -23.7015    9.6819 H         1 UNK         0.1020 
    134 H134      -51.1648  -25.3458    9.5542 H         1 UNK         0.1020 
    135 H135      -54.3777  -23.7248    8.3345 H         1 UNK         0.0694 
    136 H136      -52.7821  -24.2468    7.8629 H         1 UNK         0.0694 
    137 H137      -49.0134  -25.7247   10.6072 H         1 UNK         0.2989 
    138 H138      -46.9518  -26.8579   13.2910 H         1 UNK         0.1055 
    139 H139      -48.2748  -28.3770   10.9858 H         1 UNK         0.0806 
    140 H140      -48.1748  -28.8930   12.6587 H         1 UNK         0.0806 
    141 H141      -46.7131  -28.7864   11.6947 H         1 UNK         0.0806 
    142 H142      -46.6412  -26.4896   10.4286 H         1 UNK         0.3061 
    143 H143      -45.3278  -23.1736   10.6752 H         1 UNK         0.0734 
    144 H144      -43.4212  -24.2482    9.5087 H         1 UNK         0.0832 
    145 H145      -43.4072  -24.6800   11.2097 H         1 UNK         0.0832 
    146 H146      -43.9680  -25.8460   10.0200 H         1 UNK         0.0832 
    147 H147      -45.6925  -24.9318    8.4529 H         1 UNK         0.3156 
    148 H148      -49.0584  -24.0483    7.7017 H         1 UNK         0.0589 
    149 H149      -46.4370  -23.3209    6.2877 H         1 UNK         0.0808 
    150 H150      -48.0400  -23.3750    5.5531 H         1 UNK         0.0808 
    151 H151      -47.6763  -22.1759    6.7817 H         1 UNK         0.0808 
    152 H152      -47.3652  -25.6950    6.2274 H         1 UNK         0.3098 
    153 H153      -47.0015  -27.9206    6.5113 H         1 UNK         0.0720 
    154 H154      -46.7169  -28.8379    8.8467 H         1 UNK         0.0791 
    155 H155      -47.2915  -30.0462    7.7092 H         1 UNK         0.0791 
    156 H156      -48.4123  -29.3158    8.8510 H         1 UNK         0.0791 
    157 H157      -49.8219  -28.7637    6.9806 H         1 UNK         0.3028 
@<TRIPOS>BOND
     1    1    2 1    
     2    1   82 1    
     3    1   83 1    
     4    1   84 1    
     5    2    3 2    
     6    2    4 am   BACKBONE|DICT|INTERRES
     7    4    5 1    
     8    4   85 1    
     9    5    6 1    
    10    5   80 1    
    11    5   86 1    
    12    6    7 1    
    13    6   87 1    
    14    6   88 1    
    15    7    8 1    
    16    8    9 1    
    17    8   89 1    
    18    8   90 1    
    19    9   10 ar   
    20    9   14 ar   
    21   10   11 ar   
    22   10   91 1    
    23   11   12 ar   
    24   11   58 1    
    25   12   13 ar   
    26   12   92 1    
    27   13   14 ar   
    28   13   15 1    
    29   14   93 1    
    30   15   16 1    
    31   15   94 1    
    32   15   95 1    
    33   16   17 1    
    34   17   18 1    
    35   17   96 1    
    36   17   97 1    
    37   18   19 1    
    38   18   22 1    
    39   18   98 1    
    40   19   20 am   BACKBONE|DICT|INTERRES
    41   19   21 2    
    42   20   99 1    
    43   20  100 1    
    44   22   23 am   BACKBONE|DICT|INTERRES
    45   22  101 1    
    46   23   24 2    
    47   23   25 1    
    48   25   26 1    
    49   25   27 1    
    50   25  102 1    
    51   26  103 1    
    52   26  104 1    
    53   26  105 1    
    54   27   28 am   BACKBONE|DICT|INTERRES
    55   27  106 1    
    56   28   29 2    
    57   28   30 1    
    58   30   31 1    
    59   30   32 1    
    60   30  107 1    
    61   31  108 1    
    62   31  109 1    
    63   31  110 1    
    64   32   33 am   BACKBONE|DICT|INTERRES
    65   32  111 1    
    66   33   34 2    
    67   33   35 1    
    68   35   36 1    
    69   35   37 1    
    70   35  112 1    
    71   36  113 1    
    72   36  114 1    
    73   36  115 1    
    74   37   38 am   BACKBONE|DICT|INTERRES
    75   37  116 1    
    76   38   39 2    
    77   38   40 1    
    78   40   41 1    
    79   40   42 1    
    80   40  117 1    
    81   41  118 1    
    82   41  119 1    
    83   41  120 1    
    84   42   43 am   BACKBONE|DICT|INTERRES
    85   42  121 1    
    86   43   44 2    
    87   43   45 1    
    88   45   46 1    
    89   45   47 1    
    90   45  122 1    
    91   46  123 1    
    92   46  124 1    
    93   46  125 1    
    94   47   48 am   BACKBONE|DICT|INTERRES
    95   47  126 1    
    96   48   49 2    
    97   48   50 1    
    98   50   51 1    
    99   50   52 1    
   100   50  127 1    
   101   51  128 1    
   102   51  129 1    
   103   51  130 1    
   104   52   53 am   BACKBONE|DICT|INTERRES
   105   52  131 1    
   106   53   54 2    
   107   53   55 1    
   108   55   56 1    
   109   55   59 1    
   110   55  132 1    
   111   56   57 1    
   112   56  133 1    
   113   56  134 1    
   114   57   58 1    
   115   58  135 1    
   116   58  136 1    
   117   59   60 am   BACKBONE|DICT|INTERRES
   118   59  137 1    
   119   60   61 2    
   120   60   62 1    
   121   62   63 1    
   122   62   64 1    
   123   62  138 1    
   124   63  139 1    
   125   63  140 1    
   126   63  141 1    
   127   64   65 am   BACKBONE|DICT|INTERRES
   128   64  142 1    
   129   65   66 2    
   130   65   67 1    
   131   67   68 1    
   132   67   69 1    
   133   67  143 1    
   134   68  144 1    
   135   68  145 1    
   136   68  146 1    
   137   69   70 am   BACKBONE|DICT|INTERRES
   138   69  147 1    
   139   70   71 2    
   140   70   72 1    
   141   72   73 1    
   142   72   74 1    
   143   72  148 1    
   144   73  149 1    
   145   73  150 1    
   146   73  151 1    
   147   74   75 am   BACKBONE|DICT|INTERRES
   148   74  152 1    
   149   75   76 2    
   150   75   77 1    
   151   77   78 1    
   152   77   79 1    
   153   77  153 1    
   154   78  154 1    
   155   78  155 1    
   156   78  156 1    
   157   79   80 am   BACKBONE|DICT|INTERRES
   158   79  157 1    
   159   80   81 2    
@<TRIPOS>SUBSTRUCTURE
     1 UNK         1 GROUP             0       ****    0 ROOT    
