@<TRIPOS>MOLECULE
3R207
157   159    1
SMALL
USER_CHARGES


@<TRIPOS>ATOM
      1 CA        -43.9005  -28.5983    7.3903 C.3       0 UNK        -0.1975 
      2 C         -45.1003  -29.0631    6.5786 C.2       0 UNK         0.4852 
      3 O         -45.0550  -29.0293    5.3487 O.2       0 UNK        -0.5216 
      4 N         -46.1732  -29.4995    7.2544 N.am      1 UNK        -0.4461 
      5 CA        -47.3935  -30.0336    6.6351 C.3       1 UNK         0.0864 
      6 C6        -48.1266  -31.0187    7.5889 C.3       14 UNK        -0.0898 
      7 S7        -49.1503  -30.2440    8.8948 S.3       14 UNK        -0.2598 
      8 C8        -50.8117  -30.7378    8.3189 C.3       14 UNK         0.0286 
      9 C9        -51.9095  -29.8006    8.7996 C.ar      14 UNK        -0.0844 
     10 C10       -51.8771  -28.4527    8.4353 C.ar      14 UNK        -0.0881 
     11 C11       -52.9062  -27.5838    8.8108 C.ar      14 UNK        -0.0643 
     12 C12       -53.9856  -28.0808    9.5469 C.ar      14 UNK        -0.0930 
     13 C13       -54.0488  -29.4360    9.8879 C.ar      14 UNK        -0.0827 
     14 C14       -52.9993  -30.2884    9.5281 C.ar      14 UNK        -0.1249 
     15 C15       -55.2754  -29.9813   10.6032 C.3       14 UNK         0.0141 
     16 S16       -56.6621  -30.1790    9.4384 S.3       14 UNK        -0.2313 
     17 C17       -57.9966  -30.7842   10.5267 C.3       14 UNK        -0.0915 
     18 CA        -59.0897  -29.7058   10.8055 C.3       13 UNK         0.0968 
     19 C         -60.3591  -30.2961   11.4953 C.2       13 UNK         0.5732 
     20 N         -61.0566  -29.5505   12.3442 N.am      13 UNK        -0.7310 
     21 O         -60.7435  -31.4338   11.2330 O.2       13 UNK        -0.5035 
     22 N         -58.5461  -28.4899   11.4423 N.am      13 UNK        -0.4233 
     23 C         -57.9665  -28.4415   12.6471 C.2       13 UNK         0.4989 
     24 O         -57.8812  -29.4010   13.4188 O.2       13 UNK        -0.4996 
     25 CA        -57.3372  -27.1073   13.0561 C.3       12 UNK         0.0216 
     26 CB        -58.2791  -26.2880   13.9547 C.3       12 UNK        -0.1964 
     27 N         -56.1143  -27.4407   13.7742 N.am      12 UNK        -0.4276 
     28 C         -54.9848  -26.7313   13.7869 C.2       12 UNK         0.5020 
     29 O         -54.8604  -25.6112   13.2854 O.2       12 UNK        -0.5489 
     30 CA        -53.7755  -27.4401   14.4083 C.3       11 UNK         0.0294 
     31 CB        -52.9810  -28.1898   13.3257 C.3       11 UNK        -0.2019 
     32 N         -52.8847  -26.4967   15.0735 N.am      11 UNK        -0.4493 
     33 C         -52.9982  -26.1003   16.3461 C.2       11 UNK         0.4932 
     34 O         -53.9320  -26.4182   17.0856 O.2       11 UNK        -0.5029 
     35 CA        -51.8249  -25.2553   16.8830 C.3       10 UNK         0.0280 
     36 CB        -51.8842  -25.0193   18.4067 C.3       10 UNK        -0.1976 
     37 N         -50.5313  -25.8271   16.4840 N.am      10 UNK        -0.4242 
     38 C         -50.0610  -27.0563   16.7553 C.2       10 UNK         0.5072 
     39 O         -50.5973  -27.8457   17.5342 O.2       10 UNK        -0.5224 
     40 CA        -48.7980  -27.5118   16.0003 C.3       9 UNK         0.0343 
     41 CB        -49.1784  -28.4991   14.8849 C.3       9 UNK        -0.2003 
     42 N         -48.0386  -26.4054   15.4139 N.am      9 UNK        -0.4272 
     43 C         -47.2371  -25.5918   16.1154 C.2       9 UNK         0.4988 
     44 O         -47.0042  -25.7270   17.3172 O.2       9 UNK        -0.5108 
     45 CA        -46.6064  -24.4139   15.3554 C.3       8 UNK         0.0248 
     46 CB        -45.3637  -24.8764   14.5783 C.3       8 UNK        -0.2001 
     47 N         -47.5415  -23.7422   14.4469 N.am      8 UNK        -0.4140 
     48 C         -48.6588  -23.1073   14.8334 C.2       8 UNK         0.5028 
     49 O         -49.0298  -23.0201   16.0035 O.2       8 UNK        -0.5428 
     50 CA        -49.5283  -22.4847   13.7311 C.3       7 UNK         0.0264 
     51 CB        -48.9358  -21.1492   13.2526 C.3       7 UNK        -0.1988 
     52 N         -49.7123  -23.3764   12.5877 N.am      7 UNK        -0.4454 
     53 C         -50.4134  -24.5206   12.6060 C.2       7 UNK         0.5027 
     54 O         -50.9983  -24.9602   13.5957 O.2       7 UNK        -0.5083 
     55 CA        -50.4213  -25.3207   11.2902 C.3       6 UNK         0.0844 
     56 C56       -51.4203  -24.6769   10.2919 C.3       14 UNK        -0.0967 
     57 S57       -51.2966  -25.3104    8.5851 S.3       14 UNK        -0.2604 
     58 C58       -52.9012  -26.1351    8.3417 C.3       14 UNK         0.0134 
     59 N         -49.0614  -25.4399   10.7586 N.am      6 UNK        -0.4116 
     60 C         -48.0440  -26.0584   11.3776 C.2       5 UNK         0.5034 
     61 O         -48.1337  -26.6185   12.4696 O.2       5 UNK        -0.5045 
     62 CA        -46.6759  -25.9986   10.6839 C.3       5 UNK         0.0224 
     63 CB        -46.5331  -27.1632    9.6972 C.3       5 UNK        -0.1978 
     64 N         -46.4440  -24.7267    9.9935 N.am      5 UNK        -0.4737 
     65 C         -46.3546  -23.5430   10.6200 C.2       4 UNK         0.5027 
     66 O         -46.4303  -23.4132   11.8411 O.2       4 UNK        -0.5211 
     67 CA        -46.1986  -22.2851    9.7502 C.3       4 UNK         0.0297 
     68 CB        -44.7158  -21.9029    9.6255 C.3       4 UNK        -0.1993 
     69 N         -46.7831  -22.4113    8.4132 N.am      4 UNK        -0.4486 
     70 C         -48.0763  -22.6464    8.1520 C.2       3 UNK         0.4961 
     71 O         -48.9330  -22.7874    9.0256 O.2       3 UNK        -0.5105 
     72 CA        -48.4841  -22.7546    6.6703 C.3       3 UNK         0.0299 
     73 CB        -47.4247  -22.2076    5.6856 C.3       3 UNK        -0.1972 
     74 N         -48.8671  -24.1174    6.2850 N.am      3 UNK        -0.4305 
     75 C         -48.1438  -25.2391    6.4160 C.2       2 UNK         0.5006 
     76 O         -47.0467  -25.3038    6.9810 O.2       2 UNK        -0.5106 
     77 CA        -48.7373  -26.4936    5.7592 C.3       2 UNK         0.0296 
     78 CB        -48.6584  -26.3803    4.2214 C.3       2 UNK        -0.2002 
     79 N         -47.9985  -27.6649    6.2238 N.am      2 UNK        -0.4032 
     80 C         -48.3227  -28.9505    6.0280 C.2       1 UNK         0.5000 
     81 O         -49.3197  -29.3083    5.3975 O.2       1 UNK        -0.5238 
     82 H82       -43.9914  -28.8664    8.4426 H         1 UNK         0.0889 
     83 H83       -43.7945  -27.5161    7.3177 H         1 UNK         0.0889 
     84 H84       -42.9887  -29.0558    7.0070 H         1 UNK         0.0889 
     85 H85       -46.1599  -29.5130    8.2643 H         1 UNK         0.3028 
     86 H86       -47.0680  -30.6316    5.7807 H         1 UNK         0.0864 
     87 H87       -48.7489  -31.6911    6.9962 H         1 UNK         0.0720 
     88 H88       -47.4018  -31.6739    8.0748 H         1 UNK         0.0720 
     89 H89       -51.0040  -31.7636    8.6369 H         1 UNK         0.0814 
     90 H90       -50.8404  -30.7433    7.2284 H         1 UNK         0.0814 
     91 H91       -51.0527  -28.0853    7.8393 H         1 UNK         0.1469 
     92 H92       -54.8025  -27.4250    9.8158 H         1 UNK         0.1381 
     93 H93       -53.0500  -31.3383    9.7827 H         1 UNK         0.1206 
     94 H94       -55.5591  -29.3003   11.4039 H         1 UNK         0.0813 
     95 H95       -55.0539  -30.9409   11.0730 H         1 UNK         0.0813 
     96 H96       -57.5748  -31.1680   11.4565 H         1 UNK         0.0638 
     97 H97       -58.4352  -31.6470   10.0227 H         1 UNK         0.0638 
     98 H98       -59.4564  -29.3737    9.8337 H         1 UNK         0.0568 
     99 H99       -61.8816  -29.9361   12.7757 H         1 UNK         0.3450 
    100 H100      -60.7632  -28.6123   12.5619 H         1 UNK         0.3450 
    101 H101      -58.5908  -27.6504   10.8828 H         1 UNK         0.2987 
    102 H102      -57.0911  -26.5352   12.1586 H         1 UNK         0.0766 
    103 H103      -57.8139  -25.3518   14.2642 H         1 UNK         0.0798 
    104 H104      -58.5560  -26.8371   14.8558 H         1 UNK         0.0798 
    105 H105      -59.1999  -26.0343   13.4282 H         1 UNK         0.0798 
    106 H106      -56.1288  -28.3713   14.1761 H         1 UNK         0.3198 
    107 H107      -54.1260  -28.1693   15.1427 H         1 UNK         0.0843 
    108 H108      -53.5927  -28.9574   12.8525 H         1 UNK         0.0831 
    109 H109      -52.1111  -28.6927   13.7469 H         1 UNK         0.0831 
    110 H110      -52.6355  -27.5185   12.5386 H         1 UNK         0.0831 
    111 H111      -52.1466  -26.0820   14.5074 H         1 UNK         0.3133 
    112 H112      -51.8933  -24.2829   16.3929 H         1 UNK         0.0566 
    113 H113      -51.0452  -24.4109   18.7444 H         1 UNK         0.0814 
    114 H114      -52.7988  -24.4936   18.6834 H         1 UNK         0.0814 
    115 H115      -51.8668  -25.9556   18.9651 H         1 UNK         0.0814 
    116 H116      -50.0079  -25.2681   15.8231 H         1 UNK         0.3091 
    117 H117      -48.1592  -28.0359   16.7144 H         1 UNK         0.0702 
    118 H118      -48.2935  -28.8895   14.3819 H         1 UNK         0.0785 
    119 H119      -49.8082  -28.0258   14.1306 H         1 UNK         0.0785 
    120 H120      -49.7291  -29.3521   15.2838 H         1 UNK         0.0785 
    121 H121      -48.1358  -26.2684   14.4110 H         1 UNK         0.2998 
    122 H122      -46.2870  -23.6776   16.0958 H         1 UNK         0.0697 
    123 H123      -45.6197  -25.6005   13.8047 H         1 UNK         0.0825 
    124 H124      -44.6406  -25.3504   15.2434 H         1 UNK         0.0825 
    125 H125      -44.8605  -24.0371   14.0980 H         1 UNK         0.0825 
    126 H126      -47.2777  -23.7157   13.4633 H         1 UNK         0.3029 
    127 H127      -50.5130  -22.2857   14.1604 H         1 UNK         0.0897 
    128 H128      -49.5879  -20.6635   12.5264 H         1 UNK         0.0792 
    129 H129      -48.8104  -20.4580   14.0873 H         1 UNK         0.0792 
    130 H130      -47.9574  -21.2807   12.7890 H         1 UNK         0.0792 
    131 H131      -49.2452  -23.1174   11.7291 H         1 UNK         0.3086 
    132 H132      -50.7668  -26.3325   11.5112 H         1 UNK         0.0583 
    133 H133      -52.4400  -24.8048   10.6604 H         1 UNK         0.1020 
    134 H134      -51.2648  -23.5979   10.2267 H         1 UNK         0.1020 
    135 H135      -53.6907  -25.5574    8.8247 H         1 UNK         0.0694 
    136 H136      -53.1292  -26.1267    7.2751 H         1 UNK         0.0694 
    137 H137      -48.8880  -24.9631    9.8835 H         1 UNK         0.2989 
    138 H138      -45.9068  -26.1042   11.4516 H         1 UNK         0.1055 
    139 H139      -46.5672  -28.1196   10.2210 H         1 UNK         0.0806 
    140 H140      -45.5844  -27.1096    9.1661 H         1 UNK         0.0806 
    141 H141      -47.3382  -27.1675    8.9626 H         1 UNK         0.0806 
    142 H142      -46.4162  -24.7484    8.9794 H         1 UNK         0.3061 
    143 H143      -46.7203  -21.4729   10.2608 H         1 UNK         0.0734 
    144 H144      -44.2618  -21.7790   10.6100 H         1 UNK         0.0832 
    145 H145      -44.1442  -22.6675    9.0978 H         1 UNK         0.0832 
    146 H146      -44.5906  -20.9598    9.0932 H         1 UNK         0.0832 
    147 H147      -46.1494  -22.3381    7.6306 H         1 UNK         0.3156 
    148 H148      -49.3796  -22.1409    6.5615 H         1 UNK         0.0589 
    149 H149      -46.5148  -22.8090    5.6776 H         1 UNK         0.0808 
    150 H150      -47.8130  -22.1951    4.6671 H         1 UNK         0.0808 
    151 H151      -47.1479  -21.1809    5.9297 H         1 UNK         0.0808 
    152 H152      -49.7783  -24.1964    5.8556 H         1 UNK         0.3098 
    153 H153      -49.7786  -26.5906    6.0728 H         1 UNK         0.0720 
    154 H154      -49.1750  -25.4908    3.8592 H         1 UNK         0.0791 
    155 H155      -49.1220  -27.2344    3.7283 H         1 UNK         0.0791 
    156 H156      -47.6246  -26.3191    3.8787 H         1 UNK         0.0791 
    157 H157      -47.1629  -27.4376    6.7480 H         1 UNK         0.3028 
@<TRIPOS>BOND
     1    1    2 1    
     2    1   82 1    
     3    1   83 1    
     4    1   84 1    
     5    2    3 2    
     6    2    4 am   BACKBONE|DICT|INTERRES
     7    4    5 1    
     8    4   85 1    
     9    5    6 1    
    10    5   80 1    
    11    5   86 1    
    12    6    7 1    
    13    6   87 1    
    14    6   88 1    
    15    7    8 1    
    16    8    9 1    
    17    8   89 1    
    18    8   90 1    
    19    9   10 ar   
    20    9   14 ar   
    21   10   11 ar   
    22   10   91 1    
    23   11   12 ar   
    24   11   58 1    
    25   12   13 ar   
    26   12   92 1    
    27   13   14 ar   
    28   13   15 1    
    29   14   93 1    
    30   15   16 1    
    31   15   94 1    
    32   15   95 1    
    33   16   17 1    
    34   17   18 1    
    35   17   96 1    
    36   17   97 1    
    37   18   19 1    
    38   18   22 1    
    39   18   98 1    
    40   19   20 am   BACKBONE|DICT|INTERRES
    41   19   21 2    
    42   20   99 1    
    43   20  100 1    
    44   22   23 am   BACKBONE|DICT|INTERRES
    45   22  101 1    
    46   23   24 2    
    47   23   25 1    
    48   25   26 1    
    49   25   27 1    
    50   25  102 1    
    51   26  103 1    
    52   26  104 1    
    53   26  105 1    
    54   27   28 am   BACKBONE|DICT|INTERRES
    55   27  106 1    
    56   28   29 2    
    57   28   30 1    
    58   30   31 1    
    59   30   32 1    
    60   30  107 1    
    61   31  108 1    
    62   31  109 1    
    63   31  110 1    
    64   32   33 am   BACKBONE|DICT|INTERRES
    65   32  111 1    
    66   33   34 2    
    67   33   35 1    
    68   35   36 1    
    69   35   37 1    
    70   35  112 1    
    71   36  113 1    
    72   36  114 1    
    73   36  115 1    
    74   37   38 am   BACKBONE|DICT|INTERRES
    75   37  116 1    
    76   38   39 2    
    77   38   40 1    
    78   40   41 1    
    79   40   42 1    
    80   40  117 1    
    81   41  118 1    
    82   41  119 1    
    83   41  120 1    
    84   42   43 am   BACKBONE|DICT|INTERRES
    85   42  121 1    
    86   43   44 2    
    87   43   45 1    
    88   45   46 1    
    89   45   47 1    
    90   45  122 1    
    91   46  123 1    
    92   46  124 1    
    93   46  125 1    
    94   47   48 am   BACKBONE|DICT|INTERRES
    95   47  126 1    
    96   48   49 2    
    97   48   50 1    
    98   50   51 1    
    99   50   52 1    
   100   50  127 1    
   101   51  128 1    
   102   51  129 1    
   103   51  130 1    
   104   52   53 am   BACKBONE|DICT|INTERRES
   105   52  131 1    
   106   53   54 2    
   107   53   55 1    
   108   55   56 1    
   109   55   59 1    
   110   55  132 1    
   111   56   57 1    
   112   56  133 1    
   113   56  134 1    
   114   57   58 1    
   115   58  135 1    
   116   58  136 1    
   117   59   60 am   BACKBONE|DICT|INTERRES
   118   59  137 1    
   119   60   61 2    
   120   60   62 1    
   121   62   63 1    
   122   62   64 1    
   123   62  138 1    
   124   63  139 1    
   125   63  140 1    
   126   63  141 1    
   127   64   65 am   BACKBONE|DICT|INTERRES
   128   64  142 1    
   129   65   66 2    
   130   65   67 1    
   131   67   68 1    
   132   67   69 1    
   133   67  143 1    
   134   68  144 1    
   135   68  145 1    
   136   68  146 1    
   137   69   70 am   BACKBONE|DICT|INTERRES
   138   69  147 1    
   139   70   71 2    
   140   70   72 1    
   141   72   73 1    
   142   72   74 1    
   143   72  148 1    
   144   73  149 1    
   145   73  150 1    
   146   73  151 1    
   147   74   75 am   BACKBONE|DICT|INTERRES
   148   74  152 1    
   149   75   76 2    
   150   75   77 1    
   151   77   78 1    
   152   77   79 1    
   153   77  153 1    
   154   78  154 1    
   155   78  155 1    
   156   78  156 1    
   157   79   80 am   BACKBONE|DICT|INTERRES
   158   79  157 1    
   159   80   81 2    
@<TRIPOS>SUBSTRUCTURE
     1 UNK         1 GROUP             0       ****    0 ROOT    
