@<TRIPOS>MOLECULE
3R207
157   159    1
SMALL
USER_CHARGES


@<TRIPOS>ATOM
      1 CA        -44.2329  -29.3133    6.8272 C.3       0 UNK        -0.1975 
      2 C         -45.3104  -28.6952    5.9484 C.2       0 UNK         0.4852 
      3 O         -45.0201  -27.7781    5.1788 O.2       0 UNK        -0.5216 
      4 N         -46.5479  -29.1952    6.0552 N.am      1 UNK        -0.4461 
      5 CA        -47.7378  -28.6547    5.3897 C.3       1 UNK         0.0864 
      6 C6        -48.8583  -29.7224    5.2639 C.3       14 UNK        -0.0898 
      7 S7        -49.3263  -30.5210    6.8415 S.3       14 UNK        -0.2598 
      8 C8        -51.1455  -30.3861    6.8601 C.3       14 UNK         0.0286 
      9 C9        -51.6404  -29.6675    8.1071 C.ar      14 UNK        -0.0844 
     10 C10       -52.1797  -28.3807    8.0205 C.ar      14 UNK        -0.0881 
     11 C11       -52.6453  -27.7278    9.1665 C.ar      14 UNK        -0.0643 
     12 C12       -52.5529  -28.3651   10.4064 C.ar      14 UNK        -0.0930 
     13 C13       -52.0204  -29.6539   10.5077 C.ar      14 UNK        -0.0827 
     14 C14       -51.5732  -30.3007    9.3518 C.ar      14 UNK        -0.1249 
     15 C15       -51.9010  -30.3541   11.8580 C.3       14 UNK         0.0141 
     16 S16       -53.3839  -30.2083   12.9143 S.3       14 UNK        -0.2313 
     17 C17       -54.6861  -30.9392   11.8605 C.3       14 UNK        -0.0915 
     18 CA        -56.0666  -30.2399   11.9932 C.3       13 UNK         0.0968 
     19 C         -56.8057  -30.6369   13.3033 C.2       13 UNK         0.5732 
     20 N         -57.3151  -31.8595   13.3775 N.am      13 UNK        -0.7310 
     21 O         -56.9078  -29.8650   14.2555 O.2       13 UNK        -0.5035 
     22 N         -55.9650  -28.7850   11.8085 N.am      13 UNK        -0.4233 
     23 C         -56.9950  -27.9808   11.5265 C.2       13 UNK         0.4989 
     24 O         -58.1298  -28.3854   11.2651 O.2       13 UNK        -0.4996 
     25 CA        -56.7104  -26.4701   11.5847 C.3       12 UNK         0.0216 
     26 CB        -57.8601  -25.6240   11.0054 C.3       12 UNK        -0.1964 
     27 N         -56.4674  -26.0619   12.9684 N.am      12 UNK        -0.4276 
     28 C         -55.2800  -26.0992   13.5829 C.2       12 UNK         0.5020 
     29 O         -54.2277  -26.4310   13.0310 O.2       12 UNK        -0.5489 
     30 CA        -55.2826  -25.7491   15.0739 C.3       11 UNK         0.0294 
     31 CB        -55.6595  -26.9854   15.9127 C.3       11 UNK        -0.2019 
     32 N         -53.9577  -25.2725   15.4568 N.am      11 UNK        -0.4493 
     33 C         -53.6711  -24.5696   16.5605 C.2       11 UNK         0.4932 
     34 O         -54.5229  -24.1924   17.3676 O.2       11 UNK        -0.5029 
     35 CA        -52.1834  -24.2442   16.8026 C.3       10 UNK         0.0280 
     36 CB        -51.8790  -23.7911   18.2464 C.3       10 UNK        -0.1976 
     37 N         -51.3064  -25.3451   16.3910 N.am      10 UNK        -0.4242 
     38 C         -51.2613  -26.5888   16.8923 C.2       10 UNK         0.5072 
     39 O         -51.8887  -26.9627   17.8843 O.2       10 UNK        -0.5224 
     40 CA        -50.3884  -27.6055   16.1387 C.3       9 UNK         0.0343 
     41 CB        -51.2404  -28.3703   15.1154 C.3       9 UNK        -0.2003 
     42 N         -49.2439  -26.9965   15.4560 N.am      9 UNK        -0.4272 
     43 C         -48.1455  -26.5530   16.0844 C.2       9 UNK         0.4988 
     44 O         -47.9658  -26.6465   17.2994 O.2       9 UNK        -0.5108 
     45 CA        -47.0650  -25.8869   15.2158 C.3       8 UNK         0.0248 
     46 CB        -46.2423  -26.9447   14.4629 C.3       8 UNK        -0.2001 
     47 N         -47.6129  -24.9113   14.2697 N.am      8 UNK        -0.4140 
     48 C         -48.2182  -23.7680   14.6263 C.2       8 UNK         0.5028 
     49 O         -48.3448  -23.3909   15.7915 O.2       8 UNK        -0.5428 
     50 CA        -48.7998  -22.9017   13.4976 C.3       7 UNK         0.0264 
     51 CB        -47.7087  -22.0242   12.8635 C.3       7 UNK        -0.1988 
     52 N         -49.4552  -23.6901   12.4552 N.am      7 UNK        -0.4454 
     53 C         -50.5590  -24.4318   12.6278 C.2       7 UNK         0.5027 
     54 O         -51.1795  -24.5089   13.6870 O.2       7 UNK        -0.5083 
     55 CA        -51.0191  -25.2558   11.4135 C.3       6 UNK         0.0844 
     56 C56       -51.7680  -24.3497   10.4003 C.3       14 UNK        -0.0967 
     57 S57       -52.0189  -25.0698    8.7431 S.3       14 UNK        -0.2604 
     58 C58       -53.2707  -26.3464    9.0542 C.3       14 UNK         0.0134 
     59 N         -49.8969  -25.9941   10.8316 N.am      6 UNK        -0.4116 
     60 C         -49.1978  -26.9542   11.4534 C.2       5 UNK         0.5034 
     61 O         -49.4290  -27.3506   12.5953 O.2       5 UNK        -0.5045 
     62 CA        -47.9994  -27.5354   10.6900 C.3       5 UNK         0.0224 
     63 CB        -48.4368  -28.7179    9.8182 C.3       5 UNK        -0.1978 
     64 N         -47.3248  -26.5348    9.8609 N.am      5 UNK        -0.4737 
     65 C         -46.6404  -25.4956   10.3550 C.2       4 UNK         0.5027 
     66 O         -46.4939  -25.2842   11.5592 O.2       4 UNK        -0.5211 
     67 CA        -46.0577  -24.5047    9.3355 C.3       4 UNK         0.0297 
     68 CB        -44.8521  -25.1218    8.6069 C.3       4 UNK        -0.1993 
     69 N         -47.0299  -24.0186    8.3501 N.am      4 UNK        -0.4486 
     70 C         -48.1918  -23.4084    8.6277 C.2       3 UNK         0.4961 
     71 O         -48.6221  -23.2537    9.7697 O.2       3 UNK        -0.5105 
     72 CA        -49.0095  -22.8443    7.4485 C.3       3 UNK         0.0299 
     73 CB        -49.1252  -21.3160    7.5736 C.3       3 UNK        -0.1972 
     74 N         -48.4322  -23.1607    6.1368 N.am      3 UNK        -0.4305 
     75 C         -48.6300  -24.2544    5.3867 C.2       2 UNK         0.5006 
     76 O         -48.0478  -24.4007    4.3115 O.2       2 UNK        -0.5106 
     77 CA        -49.6307  -25.3390    5.8380 C.3       2 UNK         0.0296 
     78 CB        -51.0203  -25.0760    5.2350 C.3       2 UNK        -0.2002 
     79 N         -49.1682  -26.6602    5.4158 N.am      2 UNK        -0.4032 
     80 C         -48.2174  -27.3474    6.0603 C.2       1 UNK         0.5000 
     81 O         -47.7257  -26.9729    7.1295 O.2       1 UNK        -0.5238 
     82 H82       -44.6248  -30.1213    7.4450 H         1 UNK         0.0889 
     83 H83       -43.8105  -28.5565    7.4878 H         1 UNK         0.0889 
     84 H84       -43.4299  -29.7160    6.2106 H         1 UNK         0.0889 
     85 H85       -46.7362  -29.9296    6.7225 H         1 UNK         0.3028 
     86 H86       -47.4440  -28.3794    4.3741 H         1 UNK         0.0864 
     87 H87       -49.7353  -29.3023    4.7708 H         1 UNK         0.0720 
     88 H88       -48.5152  -30.5153    4.5976 H         1 UNK         0.0720 
     89 H89       -51.5690  -31.3911    6.8357 H         1 UNK         0.0814 
     90 H90       -51.5134  -29.8875    5.9632 H         1 UNK         0.0814 
     91 H91       -52.2427  -27.8841    7.0622 H         1 UNK         0.1469 
     92 H92       -52.9031  -27.8635   11.2966 H         1 UNK         0.1381 
     93 H93       -51.1542  -31.2955    9.4180 H         1 UNK         0.1206 
     94 H94       -51.6822  -31.4142   11.7225 H         1 UNK         0.0813 
     95 H95       -51.0483  -29.9287   12.3878 H         1 UNK         0.0813 
     96 H96       -54.7589  -32.0042   12.0869 H         1 UNK         0.0638 
     97 H97       -54.3730  -30.8892   10.8175 H         1 UNK         0.0638 
     98 H98       -56.6870  -30.6130   11.1758 H         1 UNK         0.0568 
     99 H99       -57.7907  -32.1389   14.2211 H         1 UNK         0.3450 
    100 H100      -57.2361  -32.5070   12.6091 H         1 UNK         0.3450 
    101 H101      -55.0876  -28.3673   12.0915 H         1 UNK         0.2987 
    102 H102      -55.8234  -26.2757   10.9818 H         1 UNK         0.0766 
    103 H103      -57.6121  -24.5625   11.0123 H         1 UNK         0.0798 
    104 H104      -58.7862  -25.7552   11.5668 H         1 UNK         0.0798 
    105 H105      -58.0640  -25.9009    9.9702 H         1 UNK         0.0798 
    106 H106      -57.2856  -25.8250   13.5120 H         1 UNK         0.3198 
    107 H107      -56.0084  -24.9509   15.2445 H         1 UNK         0.0843 
    108 H108      -54.9472  -27.7991   15.7667 H         1 UNK         0.0831 
    109 H109      -56.6444  -27.3643   15.6368 H         1 UNK         0.0831 
    110 H110      -55.6903  -26.7555   16.9777 H         1 UNK         0.0831 
    111 H111      -53.2224  -25.4964   14.7941 H         1 UNK         0.3133 
    112 H112      -51.9449  -23.4091   16.1425 H         1 UNK         0.0566 
    113 H113      -50.8188  -23.5736   18.3767 H         1 UNK         0.0814 
    114 H114      -52.4289  -22.8822   18.4934 H         1 UNK         0.0814 
    115 H115      -52.1600  -24.5481   18.9790 H         1 UNK         0.0814 
    116 H116      -50.8077  -25.1725   15.5237 H         1 UNK         0.3091 
    117 H117      -50.0112  -28.3240   16.8696 H         1 UNK         0.0702 
    118 H118      -50.6621  -29.1593   14.6357 H         1 UNK         0.0785 
    119 H119      -51.6244  -27.7131   14.3331 H         1 UNK         0.0785 
    120 H120      -52.0998  -28.8432   15.5930 H         1 UNK         0.0785 
    121 H121      -49.2953  -26.9402   14.4409 H         1 UNK         0.2998 
    122 H122      -46.3884  -25.3501   15.8841 H         1 UNK         0.0697 
    123 H123      -45.4332  -26.4872   13.8932 H         1 UNK         0.0825 
    124 H124      -46.8582  -27.5169   13.7695 H         1 UNK         0.0825 
    125 H125      -45.7897  -27.6534   15.1576 H         1 UNK         0.0825 
    126 H126      -47.4839  -25.1075   13.2808 H         1 UNK         0.3029 
    127 H127      -49.5530  -22.2459   13.9397 H         1 UNK         0.0897 
    128 H128      -48.1281  -21.3496   12.1167 H         1 UNK         0.0792 
    129 H129      -47.2139  -21.4095   13.6166 H         1 UNK         0.0792 
    130 H130      -46.9412  -22.6253   12.3740 H         1 UNK         0.0792 
    131 H131      -49.0355  -23.6568   11.5269 H         1 UNK         0.3086 
    132 H132      -51.7273  -25.9964   11.7853 H         1 UNK         0.0583 
    133 H133      -52.7388  -24.0616   10.8084 H         1 UNK         0.1020 
    134 H134      -51.2301  -23.4127   10.2441 H         1 UNK         0.1020 
    135 H135      -53.8292  -26.0987    9.9560 H         1 UNK         0.0694 
    136 H136      -53.9903  -26.3430    8.2345 H         1 UNK         0.0694 
    137 H137      -49.6207  -25.7231    9.9001 H         1 UNK         0.2989 
    138 H138      -47.2818  -27.9027   11.4260 H         1 UNK         0.1055 
    139 H139      -47.5917  -29.1619    9.2924 H         1 UNK         0.0806 
    140 H140      -49.1710  -28.4115    9.0722 H         1 UNK         0.0806 
    141 H141      -48.8944  -29.5018   10.4227 H         1 UNK         0.0806 
    142 H142      -47.4142  -26.6369    8.8483 H         1 UNK         0.3061 
    143 H143      -45.7065  -23.6356    9.8955 H         1 UNK         0.0734 
    144 H144      -44.3477  -24.3867    7.9797 H         1 UNK         0.0832 
    145 H145      -44.1156  -25.4972    9.3187 H         1 UNK         0.0832 
    146 H146      -45.1474  -25.9583    7.9715 H         1 UNK         0.0832 
    147 H147      -46.7746  -24.1269    7.3797 H         1 UNK         0.3156 
    148 H148      -50.0209  -23.2436    7.5184 H         1 UNK         0.0589 
    149 H149      -48.1488  -20.8308    7.5406 H         1 UNK         0.0808 
    150 H150      -49.7365  -20.8972    6.7740 H         1 UNK         0.0808 
    151 H151      -49.5960  -21.0346    8.5169 H         1 UNK         0.0808 
    152 H152      -47.7883  -22.4699    5.7783 H         1 UNK         0.3098 
    153 H153      -49.7159  -25.3539    6.9241 H         1 UNK         0.0720 
    154 H154      -51.4105  -24.1114    5.5620 H         1 UNK         0.0791 
    155 H155      -51.7378  -25.8347    5.5479 H         1 UNK         0.0791 
    156 H156      -50.9947  -25.0652    4.1446 H         1 UNK         0.0791 
    157 H157      -49.4948  -26.9874    4.5185 H         1 UNK         0.3028 
@<TRIPOS>BOND
     1    1    2 1    
     2    1   82 1    
     3    1   83 1    
     4    1   84 1    
     5    2    3 2    
     6    2    4 am   BACKBONE|DICT|INTERRES
     7    4    5 1    
     8    4   85 1    
     9    5    6 1    
    10    5   80 1    
    11    5   86 1    
    12    6    7 1    
    13    6   87 1    
    14    6   88 1    
    15    7    8 1    
    16    8    9 1    
    17    8   89 1    
    18    8   90 1    
    19    9   10 ar   
    20    9   14 ar   
    21   10   11 ar   
    22   10   91 1    
    23   11   12 ar   
    24   11   58 1    
    25   12   13 ar   
    26   12   92 1    
    27   13   14 ar   
    28   13   15 1    
    29   14   93 1    
    30   15   16 1    
    31   15   94 1    
    32   15   95 1    
    33   16   17 1    
    34   17   18 1    
    35   17   96 1    
    36   17   97 1    
    37   18   19 1    
    38   18   22 1    
    39   18   98 1    
    40   19   20 am   BACKBONE|DICT|INTERRES
    41   19   21 2    
    42   20   99 1    
    43   20  100 1    
    44   22   23 am   BACKBONE|DICT|INTERRES
    45   22  101 1    
    46   23   24 2    
    47   23   25 1    
    48   25   26 1    
    49   25   27 1    
    50   25  102 1    
    51   26  103 1    
    52   26  104 1    
    53   26  105 1    
    54   27   28 am   BACKBONE|DICT|INTERRES
    55   27  106 1    
    56   28   29 2    
    57   28   30 1    
    58   30   31 1    
    59   30   32 1    
    60   30  107 1    
    61   31  108 1    
    62   31  109 1    
    63   31  110 1    
    64   32   33 am   BACKBONE|DICT|INTERRES
    65   32  111 1    
    66   33   34 2    
    67   33   35 1    
    68   35   36 1    
    69   35   37 1    
    70   35  112 1    
    71   36  113 1    
    72   36  114 1    
    73   36  115 1    
    74   37   38 am   BACKBONE|DICT|INTERRES
    75   37  116 1    
    76   38   39 2    
    77   38   40 1    
    78   40   41 1    
    79   40   42 1    
    80   40  117 1    
    81   41  118 1    
    82   41  119 1    
    83   41  120 1    
    84   42   43 am   BACKBONE|DICT|INTERRES
    85   42  121 1    
    86   43   44 2    
    87   43   45 1    
    88   45   46 1    
    89   45   47 1    
    90   45  122 1    
    91   46  123 1    
    92   46  124 1    
    93   46  125 1    
    94   47   48 am   BACKBONE|DICT|INTERRES
    95   47  126 1    
    96   48   49 2    
    97   48   50 1    
    98   50   51 1    
    99   50   52 1    
   100   50  127 1    
   101   51  128 1    
   102   51  129 1    
   103   51  130 1    
   104   52   53 am   BACKBONE|DICT|INTERRES
   105   52  131 1    
   106   53   54 2    
   107   53   55 1    
   108   55   56 1    
   109   55   59 1    
   110   55  132 1    
   111   56   57 1    
   112   56  133 1    
   113   56  134 1    
   114   57   58 1    
   115   58  135 1    
   116   58  136 1    
   117   59   60 am   BACKBONE|DICT|INTERRES
   118   59  137 1    
   119   60   61 2    
   120   60   62 1    
   121   62   63 1    
   122   62   64 1    
   123   62  138 1    
   124   63  139 1    
   125   63  140 1    
   126   63  141 1    
   127   64   65 am   BACKBONE|DICT|INTERRES
   128   64  142 1    
   129   65   66 2    
   130   65   67 1    
   131   67   68 1    
   132   67   69 1    
   133   67  143 1    
   134   68  144 1    
   135   68  145 1    
   136   68  146 1    
   137   69   70 am   BACKBONE|DICT|INTERRES
   138   69  147 1    
   139   70   71 2    
   140   70   72 1    
   141   72   73 1    
   142   72   74 1    
   143   72  148 1    
   144   73  149 1    
   145   73  150 1    
   146   73  151 1    
   147   74   75 am   BACKBONE|DICT|INTERRES
   148   74  152 1    
   149   75   76 2    
   150   75   77 1    
   151   77   78 1    
   152   77   79 1    
   153   77  153 1    
   154   78  154 1    
   155   78  155 1    
   156   78  156 1    
   157   79   80 am   BACKBONE|DICT|INTERRES
   158   79  157 1    
   159   80   81 2    
@<TRIPOS>SUBSTRUCTURE
     1 UNK         1 GROUP             0       ****    0 ROOT    
