@<TRIPOS>MOLECULE
3R207
157   159    1
SMALL
USER_CHARGES


@<TRIPOS>ATOM
      1 CA        -48.8397  -27.6548    3.4374 C.3       0 UNK        -0.1975 
      2 C         -49.3582  -26.5374    4.3293 C.2       0 UNK         0.4852 
      3 O         -49.3140  -25.3701    3.9381 O.2       0 UNK        -0.5216 
      4 N         -49.8365  -26.8792    5.5323 N.am      1 UNK        -0.4461 
      5 CA        -50.3754  -25.9459    6.5274 C.3       1 UNK         0.0864 
      6 C6        -51.0417  -26.6864    7.7085 C.3       14 UNK        -0.0898 
      7 S7        -52.4591  -27.6939    7.1513 S.3       14 UNK        -0.2598 
      8 C8        -53.4986  -27.7258    8.6438 C.3       14 UNK         0.0286 
      9 C9        -52.8438  -28.5335    9.7519 C.ar      14 UNK        -0.0844 
     10 C10       -52.0681  -27.8941   10.7227 C.ar      14 UNK        -0.0881 
     11 C11       -51.4634  -28.6336   11.7408 C.ar      14 UNK        -0.0643 
     12 C12       -51.6400  -30.0190   11.7872 C.ar      14 UNK        -0.0930 
     13 C13       -52.4038  -30.6704   10.8164 C.ar      14 UNK        -0.0827 
     14 C14       -53.0069  -29.9215    9.8013 C.ar      14 UNK        -0.1249 
     15 C15       -52.5421  -32.1854   10.8521 C.3       14 UNK         0.0141 
     16 S16       -53.7349  -32.7392   12.1109 S.3       14 UNK        -0.2313 
     17 C17       -55.3250  -32.2958   11.3286 C.3       14 UNK        -0.0915 
     18 CA        -56.2441  -31.4109   12.2141 C.3       13 UNK         0.0968 
     19 C         -56.8942  -32.1692   13.4083 C.2       13 UNK         0.5732 
     20 N         -57.1596  -31.5218   14.5371 N.am      13 UNK        -0.7310 
     21 O         -57.1900  -33.3581   13.3100 O.2       13 UNK        -0.5035 
     22 N         -55.5856  -30.1593   12.6195 N.am      13 UNK        -0.4233 
     23 C         -55.8723  -28.9427   12.1458 C.2       13 UNK         0.4989 
     24 O         -56.6620  -28.7428   11.2202 O.2       13 UNK        -0.4996 
     25 CA        -55.1777  -27.7420   12.8323 C.3       12 UNK         0.0216 
     26 CB        -55.9132  -26.4137   12.5645 C.3       12 UNK        -0.1964 
     27 N         -54.9210  -27.8872   14.2764 N.am      12 UNK        -0.4276 
     28 C         -55.7822  -28.2873   15.2272 C.2       12 UNK         0.5020 
     29 O         -56.9323  -28.6690   15.0100 O.2       12 UNK        -0.5489 
     30 CA        -55.2670  -28.2653   16.6710 C.3       11 UNK         0.0294 
     31 CB        -54.0692  -29.2140   16.8619 C.3       11 UNK        -0.2019 
     32 N         -54.8985  -26.9015   17.0447 N.am      11 UNK        -0.4493 
     33 C         -55.7361  -26.0186   17.6108 C.2       11 UNK         0.4932 
     34 O         -56.8819  -26.2929   17.9686 O.2       11 UNK        -0.5029 
     35 CA        -55.2175  -24.5826   17.8220 C.3       10 UNK         0.0280 
     36 CB        -54.6710  -24.4142   19.2490 C.3       10 UNK        -0.1976 
     37 N         -54.1803  -24.2047   16.8614 N.am      10 UNK        -0.4242 
     38 C         -54.3862  -24.0008   15.5521 C.2       10 UNK         0.5072 
     39 O         -55.5033  -23.9528   15.0378 O.2       10 UNK        -0.5224 
     40 CA        -53.1382  -23.8511   14.6599 C.3       9 UNK         0.0343 
     41 CB        -52.9182  -22.3794   14.2762 C.3       9 UNK        -0.2003 
     42 N         -51.9105  -24.3755   15.2671 N.am      9 UNK        -0.4272 
     43 C         -51.6669  -25.6570   15.5685 C.2       9 UNK         0.4988 
     44 O         -52.4627  -26.5707   15.3360 O.2       9 UNK        -0.5108 
     45 CA        -50.3306  -25.9406   16.2843 C.3       8 UNK         0.0248 
     46 CB        -50.1406  -27.4230   16.6563 C.3       8 UNK        -0.2001 
     47 N         -49.1668  -25.4725   15.5234 N.am      8 UNK        -0.4140 
     48 C         -48.7709  -24.1948   15.4191 C.2       8 UNK         0.5028 
     49 O         -49.3733  -23.2555   15.9424 O.2       8 UNK        -0.5428 
     50 CA        -47.5011  -23.9019   14.6021 C.3       7 UNK         0.0264 
     51 CB        -46.2986  -23.6998   15.5383 C.3       7 UNK        -0.1988 
     52 N         -47.1773  -24.9445   13.6256 N.am      7 UNK        -0.4454 
     53 C         -47.8105  -25.1152   12.4577 C.2       7 UNK         0.5027 
     54 O         -48.7482  -24.4140   12.0728 O.2       7 UNK        -0.5083 
     55 CA        -47.2919  -26.2573   11.5622 C.3       6 UNK         0.0844 
     56 C56       -48.4071  -27.2538   11.1672 C.3       14 UNK        -0.0967 
     57 S57       -48.8543  -28.3187   12.5839 S.3       14 UNK        -0.2604 
     58 C58       -50.6211  -27.9439   12.7974 C.3       14 UNK         0.0134 
     59 N         -46.5947  -25.6998   10.4024 N.am      6 UNK        -0.4116 
     60 C         -45.3687  -25.1569   10.4707 C.2       5 UNK         0.5034 
     61 O         -44.7008  -25.1185   11.5066 O.2       5 UNK        -0.5045 
     62 CA        -44.7917  -24.5559    9.1755 C.3       5 UNK         0.0224 
     63 CB        -43.2637  -24.3436    9.2347 C.3       5 UNK        -0.1978 
     64 N         -45.1622  -25.3042    7.9712 N.am      5 UNK        -0.4737 
     65 C         -44.8825  -26.5814    7.6655 C.2       4 UNK         0.5027 
     66 O         -44.2384  -27.3380    8.3919 O.2       4 UNK        -0.5211 
     67 CA        -45.4187  -27.1125    6.3210 C.3       4 UNK         0.0297 
     68 CB        -46.4995  -28.1828    6.5518 C.3       4 UNK        -0.1993 
     69 N         -45.9712  -26.0435    5.4842 N.am      4 UNK        -0.4486 
     70 C         -45.2468  -25.2456    4.6858 C.2       3 UNK         0.4961 
     71 O         -44.0500  -25.4138    4.4530 O.2       3 UNK        -0.5105 
     72 CA        -45.9687  -24.0325    4.0711 C.3       3 UNK         0.0299 
     73 CB        -46.3857  -24.3231    2.6205 C.3       3 UNK        -0.1972 
     74 N         -47.1376  -23.6125    4.8546 N.am      3 UNK        -0.4305 
     75 C         -47.0583  -22.9541    6.0231 C.2       2 UNK         0.5006 
     76 O         -45.9945  -22.6057    6.5333 O.2       2 UNK        -0.5106 
     77 CA        -48.3674  -22.6765    6.7837 C.3       2 UNK         0.0296 
     78 CB        -48.9424  -21.3084    6.3842 C.3       2 UNK        -0.2002 
     79 N         -49.3814  -23.7118    6.5798 N.am      2 UNK        -0.4032 
     80 C         -49.2781  -24.9767    7.0102 C.2       1 UNK         0.5000 
     81 O         -48.3434  -25.3960    7.6999 O.2       1 UNK        -0.5238 
     82 H82       -49.0200  -28.6384    3.8707 H         1 UNK         0.0889 
     83 H83       -47.7672  -27.5436    3.2804 H         1 UNK         0.0889 
     84 H84       -49.3325  -27.6174    2.4663 H         1 UNK         0.0889 
     85 H85       -49.8578  -27.8520    5.8027 H         1 UNK         0.3028 
     86 H86       -51.1513  -25.3586    6.0308 H         1 UNK         0.0864 
     87 H87       -51.3940  -25.9658    8.4487 H         1 UNK         0.0720 
     88 H88       -50.3275  -27.3352    8.2200 H         1 UNK         0.0720 
     89 H89       -54.4663  -28.1637    8.3936 H         1 UNK         0.0814 
     90 H90       -53.7045  -26.7070    8.9756 H         1 UNK         0.0814 
     91 H91       -51.9364  -26.8216   10.6875 H         1 UNK         0.1469 
     92 H92       -51.1678  -30.5928   12.5731 H         1 UNK         0.1381 
     93 H93       -53.5953  -30.4176    9.0417 H         1 UNK         0.1206 
     94 H94       -52.8342  -32.5730    9.8748 H         1 UNK         0.0813 
     95 H95       -51.5702  -32.6289   11.0731 H         1 UNK         0.0813 
     96 H96       -55.1339  -31.7734   10.3914 H         1 UNK         0.0638 
     97 H97       -55.8340  -33.2169   11.0402 H         1 UNK         0.0638 
     98 H98       -57.1066  -31.1635   11.5935 H         1 UNK         0.0568 
     99 H99       -57.0248  -30.5171   14.6117 H         1 UNK         0.3450 
    100 H100      -57.5891  -32.0251   15.2966 H         1 UNK         0.3450 
    101 H101      -54.9240  -30.2454   13.3764 H         1 UNK         0.2987 
    102 H102      -54.1975  -27.6670   12.3662 H         1 UNK         0.0766 
    103 H103      -56.8991  -26.4004   13.0304 H         1 UNK         0.0798 
    104 H104      -55.3486  -25.5669   12.9496 H         1 UNK         0.0798 
    105 H105      -56.0498  -26.2402   11.4964 H         1 UNK         0.0798 
    106 H106      -53.9991  -27.5856   14.5827 H         1 UNK         0.3198 
    107 H107      -56.0716  -28.6200   17.3196 H         1 UNK         0.0843 
    108 H108      -54.3386  -30.2362   16.5922 H         1 UNK         0.0831 
    109 H109      -53.7447  -29.2311   17.9023 H         1 UNK         0.0831 
    110 H110      -53.2100  -28.9341   16.2526 H         1 UNK         0.0831 
    111 H111      -53.9921  -26.5818   16.7246 H         1 UNK         0.3133 
    112 H112      -56.0625  -23.9022   17.6965 H         1 UNK         0.0566 
    113 H113      -54.3610  -23.3861   19.4374 H         1 UNK         0.0814 
    114 H114      -55.4336  -24.6609   19.9892 H         1 UNK         0.0814 
    115 H115      -53.8151  -25.0643   19.4351 H         1 UNK         0.0814 
    116 H116      -53.2300  -24.1816   17.2004 H         1 UNK         0.3091 
    117 H117      -53.3220  -24.4201   13.7466 H         1 UNK         0.0702 
    118 H118      -52.0872  -22.2721   13.5786 H         1 UNK         0.0785 
    119 H119      -52.7051  -21.7624   15.1500 H         1 UNK         0.0785 
    120 H120      -53.8031  -21.9651   13.7908 H         1 UNK         0.0785 
    121 H121      -51.1791  -23.7038   15.4891 H         1 UNK         0.2998 
    122 H122      -50.3667  -25.3841   17.2234 H         1 UNK         0.0697 
    123 H123      -50.0004  -28.0541   15.7809 H         1 UNK         0.0825 
    124 H124      -51.0025  -27.8070   17.2039 H         1 UNK         0.0825 
    125 H125      -49.2706  -27.5562   17.2995 H         1 UNK         0.0825 
    126 H126      -48.6309  -26.1762   15.0368 H         1 UNK         0.3029 
    127 H127      -47.6723  -22.9672   14.0629 H         1 UNK         0.0897 
    128 H128      -45.4053  -23.4160   14.9813 H         1 UNK         0.0792 
    129 H129      -46.4944  -22.9044   16.2591 H         1 UNK         0.0792 
    130 H130      -46.0695  -24.6033   16.1050 H         1 UNK         0.0792 
    131 H131      -46.3883  -25.5392   13.8395 H         1 UNK         0.3086 
    132 H132      -46.5494  -26.8262   12.1277 H         1 UNK         0.0583 
    133 H133      -49.2818  -26.7393   10.7646 H         1 UNK         0.1020 
    134 H134      -48.0558  -27.9099   10.3690 H         1 UNK         0.1020 
    135 H135      -50.9478  -28.2983   13.7739 H         1 UNK         0.0694 
    136 H136      -50.7765  -26.8637   12.7924 H         1 UNK         0.0694 
    137 H137      -47.1048  -25.6630    9.5270 H         1 UNK         0.2989 
    138 H138      -45.2536  -23.5723    9.0760 H         1 UNK         0.1055 
    139 H139      -42.8905  -23.8964    8.3133 H         1 UNK         0.0806 
    140 H140      -42.7301  -25.2812    9.3936 H         1 UNK         0.0806 
    141 H141      -42.9920  -23.6728   10.0508 H         1 UNK         0.0806 
    142 H142      -45.6999  -24.7764    7.2972 H         1 UNK         0.3061 
    143 H143      -44.5827  -27.5821    5.7981 H         1 UNK         0.0734 
    144 H144      -46.1041  -29.0136    7.1377 H         1 UNK         0.0832 
    145 H145      -47.3574  -27.7862    7.0949 H         1 UNK         0.0832 
    146 H146      -46.8564  -28.5973    5.6094 H         1 UNK         0.0832 
    147 H147      -46.9421  -25.8124    5.6381 H         1 UNK         0.3156 
    148 H148      -45.2571  -23.2040    4.0516 H         1 UNK         0.0589 
    149 H149      -47.0620  -25.1746    2.5512 H         1 UNK         0.0808 
    150 H150      -46.8810  -23.4633    2.1693 H         1 UNK         0.0808 
    151 H151      -45.5143  -24.5533    2.0060 H         1 UNK         0.0808 
    152 H152      -48.0450  -23.9144    4.5100 H         1 UNK         0.3098 
    153 H153      -48.1286  -22.6483    7.8493 H         1 UNK         0.0720 
    154 H154      -49.8262  -21.0619    6.9731 H         1 UNK         0.0791 
    155 H155      -49.2208  -21.2777    5.3299 H         1 UNK         0.0791 
    156 H156      -48.2125  -20.5150    6.5517 H         1 UNK         0.0791 
    157 H157      -50.1648  -23.4641    5.9918 H         1 UNK         0.3028 
@<TRIPOS>BOND
     1    1    2 1    
     2    1   82 1    
     3    1   83 1    
     4    1   84 1    
     5    2    3 2    
     6    2    4 am   BACKBONE|DICT|INTERRES
     7    4    5 1    
     8    4   85 1    
     9    5    6 1    
    10    5   80 1    
    11    5   86 1    
    12    6    7 1    
    13    6   87 1    
    14    6   88 1    
    15    7    8 1    
    16    8    9 1    
    17    8   89 1    
    18    8   90 1    
    19    9   10 ar   
    20    9   14 ar   
    21   10   11 ar   
    22   10   91 1    
    23   11   12 ar   
    24   11   58 1    
    25   12   13 ar   
    26   12   92 1    
    27   13   14 ar   
    28   13   15 1    
    29   14   93 1    
    30   15   16 1    
    31   15   94 1    
    32   15   95 1    
    33   16   17 1    
    34   17   18 1    
    35   17   96 1    
    36   17   97 1    
    37   18   19 1    
    38   18   22 1    
    39   18   98 1    
    40   19   20 am   BACKBONE|DICT|INTERRES
    41   19   21 2    
    42   20   99 1    
    43   20  100 1    
    44   22   23 am   BACKBONE|DICT|INTERRES
    45   22  101 1    
    46   23   24 2    
    47   23   25 1    
    48   25   26 1    
    49   25   27 1    
    50   25  102 1    
    51   26  103 1    
    52   26  104 1    
    53   26  105 1    
    54   27   28 am   BACKBONE|DICT|INTERRES
    55   27  106 1    
    56   28   29 2    
    57   28   30 1    
    58   30   31 1    
    59   30   32 1    
    60   30  107 1    
    61   31  108 1    
    62   31  109 1    
    63   31  110 1    
    64   32   33 am   BACKBONE|DICT|INTERRES
    65   32  111 1    
    66   33   34 2    
    67   33   35 1    
    68   35   36 1    
    69   35   37 1    
    70   35  112 1    
    71   36  113 1    
    72   36  114 1    
    73   36  115 1    
    74   37   38 am   BACKBONE|DICT|INTERRES
    75   37  116 1    
    76   38   39 2    
    77   38   40 1    
    78   40   41 1    
    79   40   42 1    
    80   40  117 1    
    81   41  118 1    
    82   41  119 1    
    83   41  120 1    
    84   42   43 am   BACKBONE|DICT|INTERRES
    85   42  121 1    
    86   43   44 2    
    87   43   45 1    
    88   45   46 1    
    89   45   47 1    
    90   45  122 1    
    91   46  123 1    
    92   46  124 1    
    93   46  125 1    
    94   47   48 am   BACKBONE|DICT|INTERRES
    95   47  126 1    
    96   48   49 2    
    97   48   50 1    
    98   50   51 1    
    99   50   52 1    
   100   50  127 1    
   101   51  128 1    
   102   51  129 1    
   103   51  130 1    
   104   52   53 am   BACKBONE|DICT|INTERRES
   105   52  131 1    
   106   53   54 2    
   107   53   55 1    
   108   55   56 1    
   109   55   59 1    
   110   55  132 1    
   111   56   57 1    
   112   56  133 1    
   113   56  134 1    
   114   57   58 1    
   115   58  135 1    
   116   58  136 1    
   117   59   60 am   BACKBONE|DICT|INTERRES
   118   59  137 1    
   119   60   61 2    
   120   60   62 1    
   121   62   63 1    
   122   62   64 1    
   123   62  138 1    
   124   63  139 1    
   125   63  140 1    
   126   63  141 1    
   127   64   65 am   BACKBONE|DICT|INTERRES
   128   64  142 1    
   129   65   66 2    
   130   65   67 1    
   131   67   68 1    
   132   67   69 1    
   133   67  143 1    
   134   68  144 1    
   135   68  145 1    
   136   68  146 1    
   137   69   70 am   BACKBONE|DICT|INTERRES
   138   69  147 1    
   139   70   71 2    
   140   70   72 1    
   141   72   73 1    
   142   72   74 1    
   143   72  148 1    
   144   73  149 1    
   145   73  150 1    
   146   73  151 1    
   147   74   75 am   BACKBONE|DICT|INTERRES
   148   74  152 1    
   149   75   76 2    
   150   75   77 1    
   151   77   78 1    
   152   77   79 1    
   153   77  153 1    
   154   78  154 1    
   155   78  155 1    
   156   78  156 1    
   157   79   80 am   BACKBONE|DICT|INTERRES
   158   79  157 1    
   159   80   81 2    
@<TRIPOS>SUBSTRUCTURE
     1 UNK         1 GROUP             0       ****    0 ROOT    
