@<TRIPOS>MOLECULE
3R207
157   159    1
SMALL
USER_CHARGES


@<TRIPOS>ATOM
      1 CA        -47.3040  -25.8328    4.9535 C.3       0 UNK        -0.1975 
      2 C         -47.7549  -27.1721    5.5172 C.2       0 UNK         0.4852 
      3 O         -46.9986  -28.1408    5.4593 O.2       0 UNK        -0.5216 
      4 N         -48.9857  -27.2134    6.0439 N.am      1 UNK        -0.4461 
      5 CA        -49.6627  -28.3518    6.6730 C.3       1 UNK         0.0864 
      6 C6        -49.6893  -29.6339    5.7972 C.3       14 UNK        -0.0898 
      7 S7        -51.0327  -30.7852    6.2467 S.3       14 UNK        -0.2598 
      8 C8        -52.3930  -30.2221    5.1708 C.3       14 UNK         0.0286 
      9 C9        -52.9442  -28.8839    5.6384 C.ar      14 UNK        -0.0844 
     10 C10       -52.5773  -27.6992    4.9909 C.ar      14 UNK        -0.0881 
     11 C11       -53.0150  -26.4634    5.4769 C.ar      14 UNK        -0.0643 
     12 C12       -53.8727  -26.4221    6.5789 C.ar      14 UNK        -0.0930 
     13 C13       -54.2495  -27.5989    7.2282 C.ar      14 UNK        -0.0827 
     14 C14       -53.7832  -28.8278    6.7551 C.ar      14 UNK        -0.1249 
     15 C15       -55.1514  -27.5349    8.4472 C.3       14 UNK         0.0141 
     16 S16       -54.2378  -26.9703    9.9163 S.3       14 UNK        -0.2313 
     17 C17       -55.5554  -27.0943   11.1727 C.3       14 UNK        -0.0915 
     18 CA        -55.3365  -28.1721   12.2702 C.3       13 UNK         0.0968 
     19 C         -55.0682  -29.6082   11.7257 C.2       13 UNK         0.5732 
     20 N         -54.0523  -30.3227   12.1958 N.am      13 UNK        -0.7310 
     21 O         -55.8140  -30.0936   10.8785 O.2       13 UNK        -0.5035 
     22 N         -54.4150  -27.7063   13.3202 N.am      13 UNK        -0.4233 
     23 C         -54.4853  -28.1127   14.5934 C.2       13 UNK         0.4989 
     24 O         -55.2840  -28.9616   14.9968 O.2       13 UNK        -0.4996 
     25 CA        -53.5353  -27.4245   15.5871 C.3       12 UNK         0.0216 
     26 CB        -54.0227  -27.5550   17.0453 C.3       12 UNK        -0.1964 
     27 N         -52.1335  -27.8417   15.5034 N.am      12 UNK        -0.4276 
     28 C         -51.6278  -29.0847   15.5239 C.2       12 UNK         0.5020 
     29 O         -52.2876  -30.1137   15.3811 O.2       12 UNK        -0.5489 
     30 CA        -50.1148  -29.2022   15.7988 C.3       11 UNK         0.0294 
     31 CB        -49.3227  -29.2666   14.4866 C.3       11 UNK        -0.2019 
     32 N         -49.5990  -28.0995   16.6167 N.am      11 UNK        -0.4493 
     33 C         -49.9109  -27.8839   17.9023 C.2       11 UNK         0.4932 
     34 O         -50.5619  -28.6674   18.5937 O.2       11 UNK        -0.5029 
     35 CA        -49.4592  -26.5437   18.5119 C.3       10 UNK         0.0280 
     36 CB        -48.1003  -26.0458   17.9674 C.3       10 UNK        -0.1976 
     37 N         -50.4984  -25.5123   18.3784 N.am      10 UNK        -0.4242 
     38 C         -51.0161  -25.0328   17.2380 C.2       10 UNK         0.5072 
     39 O         -50.6532  -25.3923   16.1130 O.2       10 UNK        -0.5224 
     40 CA        -52.1358  -23.9892   17.3708 C.3       9 UNK         0.0343 
     41 CB        -51.6045  -22.6677   17.9530 C.3       9 UNK        -0.2003 
     42 N         -52.6783  -23.7372   16.0393 N.am      9 UNK        -0.4272 
     43 C         -53.9680  -23.6611   15.6929 C.2       9 UNK         0.4988 
     44 O         -54.8939  -23.7060   16.5032 O.2       9 UNK        -0.5108 
     45 CA        -54.2848  -23.5280   14.1871 C.3       8 UNK         0.0248 
     46 CB        -55.2496  -22.3583   13.9250 C.3       8 UNK        -0.2001 
     47 N         -53.0788  -23.3370   13.3730 N.am      8 UNK        -0.4140 
     48 C         -52.3544  -24.3142   12.8132 C.2       8 UNK         0.5028 
     49 O         -52.6527  -25.5097   12.8552 O.2       8 UNK        -0.5428 
     50 CA        -51.0229  -23.8736   12.1849 C.3       7 UNK         0.0264 
     51 CB        -49.8474  -24.2555   13.0970 C.3       7 UNK        -0.1988 
     52 N         -50.7930  -24.4396   10.8582 N.am      7 UNK        -0.4454 
     53 C         -51.4450  -24.0709    9.7455 C.2       7 UNK         0.5027 
     54 O         -52.3950  -23.2850    9.7457 O.2       7 UNK        -0.5083 
     55 CA        -50.8844  -24.6169    8.4075 C.3       6 UNK         0.0844 
     56 C56       -51.5115  -23.9104    7.1678 C.3       14 UNK        -0.0967 
     57 S57       -50.9650  -24.6099    5.5707 S.3       14 UNK        -0.2604 
     58 C58       -52.5336  -25.1742    4.8318 C.3       14 UNK         0.0134 
     59 N         -49.4105  -24.5951    8.4272 N.am      6 UNK        -0.4116 
     60 C         -48.6395  -23.4953    8.4677 C.2       5 UNK         0.5034 
     61 O         -49.0736  -22.3492    8.3493 O.2       5 UNK        -0.5045 
     62 CA        -47.1325  -23.6745    8.7115 C.3       5 UNK         0.0224 
     63 CB        -46.7067  -22.9734   10.0147 C.3       5 UNK        -0.1978 
     64 N         -46.7074  -25.0752    8.7840 N.am      5 UNK        -0.4737 
     65 C         -45.6032  -25.5618    8.1978 C.2       4 UNK         0.5027 
     66 O         -44.9024  -24.9069    7.4250 O.2       4 UNK        -0.5211 
     67 CA        -45.2070  -27.0177    8.5249 C.3       4 UNK         0.0297 
     68 CB        -43.6805  -27.2442    8.4869 C.3       4 UNK        -0.1993 
     69 N         -45.7898  -27.5095    9.7791 N.am      4 UNK        -0.4486 
     70 C         -45.5691  -27.0445   11.0207 C.2       3 UNK         0.4961 
     71 O         -44.7162  -26.1983   11.2909 O.2       3 UNK        -0.5105 
     72 CA        -46.4697  -27.5933   12.1500 C.3       3 UNK         0.0299 
     73 CB        -46.7595  -26.5235   13.2246 C.3       3 UNK        -0.1972 
     74 N         -47.7212  -28.2051   11.6773 N.am      3 UNK        -0.4305 
     75 C         -48.6992  -27.6160   10.9743 C.2       2 UNK         0.5006 
     76 O         -48.7005  -26.4301   10.6296 O.2       2 UNK        -0.5106 
     77 CA        -49.8454  -28.5310   10.5161 C.3       2 UNK         0.0296 
     78 CB        -51.1446  -28.1903   11.2605 C.3       2 UNK        -0.2002 
     79 N         -50.0843  -28.4224    9.0755 N.am      2 UNK        -0.4032 
     80 C         -49.1676  -28.5946    8.1100 C.2       1 UNK         0.5000 
     81 O         -47.9960  -28.9142    8.3254 O.2       1 UNK        -0.5238 
     82 H82       -47.7986  -24.9995    5.4526 H         1 UNK         0.0889 
     83 H83       -47.5278  -25.7791    3.8885 H         1 UNK         0.0889 
     84 H84       -46.2291  -25.7079    5.0813 H         1 UNK         0.0889 
     85 H85       -49.5421  -26.3671    6.0079 H         1 UNK         0.3028 
     86 H86       -50.6867  -28.0003    6.7697 H         1 UNK         0.0864 
     87 H87       -49.8063  -29.3678    4.7458 H         1 UNK         0.0720 
     88 H88       -48.7393  -30.1674    5.8622 H         1 UNK         0.0720 
     89 H89       -53.1896  -30.9674    5.1885 H         1 UNK         0.0814 
     90 H90       -52.0509  -30.1668    4.1361 H         1 UNK         0.0814 
     91 H91       -51.9096  -27.7340    4.1407 H         1 UNK         0.1469 
     92 H92       -54.2319  -25.4739    6.9532 H         1 UNK         0.1381 
     93 H93       -54.0573  -29.7412    7.2658 H         1 UNK         0.1206 
     94 H94       -55.5914  -28.5133    8.6455 H         1 UNK         0.0813 
     95 H95       -55.9821  -26.8550    8.2522 H         1 UNK         0.0813 
     96 H96       -56.5068  -27.2812   10.6722 H         1 UNK         0.0638 
     97 H97       -55.6673  -26.1121   11.6348 H         1 UNK         0.0638 
     98 H98       -56.3106  -28.2659   12.7544 H         1 UNK         0.0568 
     99 H99       -53.9012  -31.2540   11.8438 H         1 UNK         0.3450 
    100 H100      -53.4775  -29.9618   12.9412 H         1 UNK         0.3450 
    101 H101      -53.7308  -26.9994   13.0509 H         1 UNK         0.2987 
    102 H102      -53.5445  -26.3680   15.3324 H         1 UNK         0.0766 
    103 H103      -55.0436  -27.1857   17.1513 H         1 UNK         0.0798 
    104 H104      -53.3986  -26.9792   17.7278 H         1 UNK         0.0798 
    105 H105      -54.0117  -28.5923   17.3823 H         1 UNK         0.0798 
    106 H106      -51.4682  -27.0761   15.5784 H         1 UNK         0.3198 
    107 H107      -49.9533  -30.1343   16.3447 H         1 UNK         0.0843 
    108 H108      -49.3837  -28.3231   13.9460 H         1 UNK         0.0831 
    109 H109      -49.7062  -30.0518   13.8334 H         1 UNK         0.0831 
    110 H110      -48.2696  -29.4812   14.6697 H         1 UNK         0.0831 
    111 H111      -49.1054  -27.3629   16.1325 H         1 UNK         0.3133 
    112 H112      -49.3335  -26.7184   19.5817 H         1 UNK         0.0566 
    113 H113      -47.7506  -25.1809   18.5310 H         1 UNK         0.0814 
    114 H114      -48.1441  -25.7529   16.9182 H         1 UNK         0.0814 
    115 H115      -47.3356  -26.8182   18.0606 H         1 UNK         0.0814 
    116 H116      -50.8840  -25.1771   19.2505 H         1 UNK         0.3091 
    117 H117      -52.9090  -24.3989   18.0240 H         1 UNK         0.0702 
    118 H118      -52.3934  -21.9172   18.0085 H         1 UNK         0.0785 
    119 H119      -50.7961  -22.2568   17.3467 H         1 UNK         0.0785 
    120 H120      -51.2195  -22.8039   18.9641 H         1 UNK         0.0785 
    121 H121      -51.9901  -23.8041   15.3018 H         1 UNK         0.2998 
    122 H122      -54.7832  -24.4505   13.8816 H         1 UNK         0.0697 
    123 H123      -54.8264  -21.4052   14.2446 H         1 UNK         0.0825 
    124 H124      -56.1885  -22.4948   14.4635 H         1 UNK         0.0825 
    125 H125      -55.4968  -22.2787   12.8662 H         1 UNK         0.0825 
    126 H126      -52.7481  -22.3854   13.2933 H         1 UNK         0.3029 
    127 H127      -51.0247  -22.7865   12.0778 H         1 UNK         0.0897 
    128 H128      -49.7922  -25.3342   13.2529 H         1 UNK         0.0792 
    129 H129      -49.9413  -23.7878   14.0773 H         1 UNK         0.0792 
    130 H130      -48.8981  -23.9258   12.6762 H         1 UNK         0.0792 
    131 H131      -50.0372  -25.1155   10.7834 H         1 UNK         0.3086 
    132 H132      -51.1783  -25.6669    8.3711 H         1 UNK         0.0583 
    133 H133      -52.5988  -23.9495    7.2221 H         1 UNK         0.1020 
    134 H134      -51.2739  -22.8460    7.1661 H         1 UNK         0.1020 
    135 H135      -53.2895  -24.3919    4.9171 H         1 UNK         0.0694 
    136 H136      -52.3808  -25.3323    3.7631 H         1 UNK         0.0694 
    137 H137      -48.9630  -25.4819    8.6057 H         1 UNK         0.2989 
    138 H138      -46.6386  -23.1747    7.8752 H         1 UNK         0.1055 
    139 H139      -47.1804  -23.4272   10.8861 H         1 UNK         0.0806 
    140 H140      -46.9785  -21.9170   10.0055 H         1 UNK         0.0806 
    141 H141      -45.6272  -23.0268   10.1576 H         1 UNK         0.0806 
    142 H142      -47.2033  -25.6655    9.4443 H         1 UNK         0.3061 
    143 H143      -45.6425  -27.6309    7.7361 H         1 UNK         0.0734 
    144 H144      -43.1548  -26.5938    9.1863 H         1 UNK         0.0832 
    145 H145      -43.4256  -28.2759    8.7287 H         1 UNK         0.0832 
    146 H146      -43.2811  -27.0384    7.4931 H         1 UNK         0.0832 
    147 H147      -46.5301  -28.1920    9.6478 H         1 UNK         0.3156 
    148 H148      -45.9022  -28.3943   12.6258 H         1 UNK         0.0589 
    149 H149      -47.4065  -26.9063   14.0125 H         1 UNK         0.0808 
    150 H150      -45.8381  -26.1887   13.7023 H         1 UNK         0.0808 
    151 H151      -47.2354  -25.6434   12.7937 H         1 UNK         0.0808 
    152 H152      -47.8050  -29.1954   11.8619 H         1 UNK         0.3098 
    153 H153      -49.5856  -29.5700   10.7279 H         1 UNK         0.0720 
    154 H154      -51.0336  -28.2878   12.3390 H         1 UNK         0.0791 
    155 H155      -51.9558  -28.8533   10.9613 H         1 UNK         0.0791 
    156 H156      -51.4636  -27.1671   11.0642 H         1 UNK         0.0791 
    157 H157      -51.0298  -28.1930    8.8057 H         1 UNK         0.3028 
@<TRIPOS>BOND
     1    1    2 1    
     2    1   82 1    
     3    1   83 1    
     4    1   84 1    
     5    2    3 2    
     6    2    4 am   BACKBONE|DICT|INTERRES
     7    4    5 1    
     8    4   85 1    
     9    5    6 1    
    10    5   80 1    
    11    5   86 1    
    12    6    7 1    
    13    6   87 1    
    14    6   88 1    
    15    7    8 1    
    16    8    9 1    
    17    8   89 1    
    18    8   90 1    
    19    9   10 ar   
    20    9   14 ar   
    21   10   11 ar   
    22   10   91 1    
    23   11   12 ar   
    24   11   58 1    
    25   12   13 ar   
    26   12   92 1    
    27   13   14 ar   
    28   13   15 1    
    29   14   93 1    
    30   15   16 1    
    31   15   94 1    
    32   15   95 1    
    33   16   17 1    
    34   17   18 1    
    35   17   96 1    
    36   17   97 1    
    37   18   19 1    
    38   18   22 1    
    39   18   98 1    
    40   19   20 am   BACKBONE|DICT|INTERRES
    41   19   21 2    
    42   20   99 1    
    43   20  100 1    
    44   22   23 am   BACKBONE|DICT|INTERRES
    45   22  101 1    
    46   23   24 2    
    47   23   25 1    
    48   25   26 1    
    49   25   27 1    
    50   25  102 1    
    51   26  103 1    
    52   26  104 1    
    53   26  105 1    
    54   27   28 am   BACKBONE|DICT|INTERRES
    55   27  106 1    
    56   28   29 2    
    57   28   30 1    
    58   30   31 1    
    59   30   32 1    
    60   30  107 1    
    61   31  108 1    
    62   31  109 1    
    63   31  110 1    
    64   32   33 am   BACKBONE|DICT|INTERRES
    65   32  111 1    
    66   33   34 2    
    67   33   35 1    
    68   35   36 1    
    69   35   37 1    
    70   35  112 1    
    71   36  113 1    
    72   36  114 1    
    73   36  115 1    
    74   37   38 am   BACKBONE|DICT|INTERRES
    75   37  116 1    
    76   38   39 2    
    77   38   40 1    
    78   40   41 1    
    79   40   42 1    
    80   40  117 1    
    81   41  118 1    
    82   41  119 1    
    83   41  120 1    
    84   42   43 am   BACKBONE|DICT|INTERRES
    85   42  121 1    
    86   43   44 2    
    87   43   45 1    
    88   45   46 1    
    89   45   47 1    
    90   45  122 1    
    91   46  123 1    
    92   46  124 1    
    93   46  125 1    
    94   47   48 am   BACKBONE|DICT|INTERRES
    95   47  126 1    
    96   48   49 2    
    97   48   50 1    
    98   50   51 1    
    99   50   52 1    
   100   50  127 1    
   101   51  128 1    
   102   51  129 1    
   103   51  130 1    
   104   52   53 am   BACKBONE|DICT|INTERRES
   105   52  131 1    
   106   53   54 2    
   107   53   55 1    
   108   55   56 1    
   109   55   59 1    
   110   55  132 1    
   111   56   57 1    
   112   56  133 1    
   113   56  134 1    
   114   57   58 1    
   115   58  135 1    
   116   58  136 1    
   117   59   60 am   BACKBONE|DICT|INTERRES
   118   59  137 1    
   119   60   61 2    
   120   60   62 1    
   121   62   63 1    
   122   62   64 1    
   123   62  138 1    
   124   63  139 1    
   125   63  140 1    
   126   63  141 1    
   127   64   65 am   BACKBONE|DICT|INTERRES
   128   64  142 1    
   129   65   66 2    
   130   65   67 1    
   131   67   68 1    
   132   67   69 1    
   133   67  143 1    
   134   68  144 1    
   135   68  145 1    
   136   68  146 1    
   137   69   70 am   BACKBONE|DICT|INTERRES
   138   69  147 1    
   139   70   71 2    
   140   70   72 1    
   141   72   73 1    
   142   72   74 1    
   143   72  148 1    
   144   73  149 1    
   145   73  150 1    
   146   73  151 1    
   147   74   75 am   BACKBONE|DICT|INTERRES
   148   74  152 1    
   149   75   76 2    
   150   75   77 1    
   151   77   78 1    
   152   77   79 1    
   153   77  153 1    
   154   78  154 1    
   155   78  155 1    
   156   78  156 1    
   157   79   80 am   BACKBONE|DICT|INTERRES
   158   79  157 1    
   159   80   81 2    
@<TRIPOS>SUBSTRUCTURE
     1 UNK         1 GROUP             0       ****    0 ROOT    
