@<TRIPOS>MOLECULE
3R207
157   159    1
SMALL
USER_CHARGES


@<TRIPOS>ATOM
      1 CA        -49.4505  -30.6091    9.0405 C.3       0 UNK        -0.1975 
      2 C         -49.3472  -30.0446    7.6328 C.2       0 UNK         0.4852 
      3 O         -48.3349  -30.2546    6.9633 O.2       0 UNK        -0.5216 
      4 N         -50.3767  -29.3204    7.1756 N.am      1 UNK        -0.4461 
      5 CA        -50.5146  -28.7909    5.8104 C.3       1 UNK         0.0864 
      6 C6        -52.0015  -28.5767    5.4143 C.3       14 UNK        -0.0898 
      7 S7        -53.0506  -30.0480    5.6891 S.3       14 UNK        -0.2598 
      8 C8        -54.2425  -29.4438    6.9300 C.3       14 UNK         0.0286 
      9 C9        -53.6062  -29.2675    8.3020 C.ar      14 UNK        -0.0844 
     10 C10       -53.1097  -28.0212    8.6950 C.ar      14 UNK        -0.0881 
     11 C11       -52.5085  -27.8593    9.9448 C.ar      14 UNK        -0.0643 
     12 C12       -52.4454  -28.9424   10.8232 C.ar      14 UNK        -0.0930 
     13 C13       -52.9548  -30.1911   10.4523 C.ar      14 UNK        -0.0827 
     14 C14       -53.5213  -30.3503    9.1831 C.ar      14 UNK        -0.1249 
     15 C15       -52.8717  -31.3691   11.4159 C.3       14 UNK         0.0141 
     16 S16       -53.5517  -30.9777   13.0639 S.3       14 UNK        -0.2313 
     17 C17       -55.3280  -31.3953   12.9449 C.3       14 UNK        -0.0915 
     18 CA        -56.0976  -30.8959   11.6837 C.3       13 UNK         0.0968 
     19 C         -57.5897  -31.3500   11.6890 C.2       13 UNK         0.5732 
     20 N         -58.5295  -30.5535   11.1932 N.am      13 UNK        -0.7310 
     21 O         -57.9024  -32.4591   12.1163 O.2       13 UNK        -0.5035 
     22 N         -55.8958  -29.4677   11.3771 N.am      13 UNK        -0.4233 
     23 C         -56.1861  -28.4296   12.1675 C.2       13 UNK         0.4989 
     24 O         -56.6474  -28.5204   13.3083 O.2       13 UNK        -0.4996 
     25 CA        -55.9573  -27.0426   11.5588 C.3       12 UNK         0.0216 
     26 CB        -57.1919  -26.5895   10.7549 C.3       12 UNK        -0.1964 
     27 N         -55.6766  -26.1161   12.6482 N.am      12 UNK        -0.4276 
     28 C         -55.1537  -24.8903   12.5372 C.2       12 UNK         0.5020 
     29 O         -54.9195  -24.3322   11.4645 O.2       12 UNK        -0.5489 
     30 CA        -54.8096  -24.1709   13.8556 C.3       11 UNK         0.0294 
     31 CB        -56.0225  -23.3813   14.3742 C.3       11 UNK        -0.2019 
     32 N         -54.3272  -25.0790   14.9049 N.am      11 UNK        -0.4493 
     33 C         -53.1939  -25.7880   14.8155 C.2       11 UNK         0.4932 
     34 O         -52.4341  -25.7395   13.8502 O.2       11 UNK        -0.5029 
     35 CA        -52.8791  -26.7390   15.9720 C.3       10 UNK         0.0280 
     36 CB        -53.6718  -28.0517   15.8108 C.3       10 UNK        -0.1976 
     37 N         -51.4421  -27.0105   15.9812 N.am      10 UNK        -0.4242 
     38 C         -50.7609  -27.5430   17.0034 C.2       10 UNK         0.5072 
     39 O         -51.2718  -27.8567   18.0798 O.2       10 UNK        -0.5224 
     40 CA        -49.2548  -27.7590   16.8007 C.3       9 UNK         0.0343 
     41 CB        -48.9914  -28.9372   15.8465 C.3       9 UNK        -0.2003 
     42 N         -48.6125  -26.5499   16.2864 N.am      9 UNK        -0.4272 
     43 C         -48.0710  -25.5923   17.0541 C.2       9 UNK         0.4988 
     44 O         -48.0264  -25.6475   18.2839 O.2       9 UNK        -0.5108 
     45 CA        -47.4567  -24.3679   16.3477 C.3       8 UNK         0.0248 
     46 CB        -45.9365  -24.5417   16.2003 C.3       8 UNK        -0.2001 
     47 N         -48.0380  -24.1046   15.0310 N.am      8 UNK        -0.4140 
     48 C         -49.2757  -23.6288   14.8285 C.2       8 UNK         0.5028 
     49 O         -50.0233  -23.2647   15.7370 O.2       8 UNK        -0.5428 
     50 CA        -49.7769  -23.5613   13.3729 C.3       7 UNK         0.0264 
     51 CB        -49.6231  -22.1358   12.8204 C.3       7 UNK        -0.1988 
     52 N         -49.1309  -24.5052   12.4529 N.am      7 UNK        -0.4454 
     53 C         -49.0657  -25.8382   12.6064 C.2       7 UNK         0.5027 
     54 O         -49.5330  -26.4438   13.5717 O.2       7 UNK        -0.5083 
     55 CA        -48.2863  -26.6338   11.5409 C.3       6 UNK         0.0844 
     56 C56       -49.2157  -27.3458   10.5294 C.3       14 UNK        -0.0967 
     57 S57       -50.3028  -26.2444    9.5604 S.3       14 UNK        -0.2604 
     58 C58       -51.9246  -26.5136   10.3402 C.3       14 UNK         0.0134 
     59 N         -47.2148  -25.8684   10.8935 N.am      6 UNK        -0.4116 
     60 C         -46.1213  -25.4201   11.5302 C.2       5 UNK         0.5034 
     61 O         -45.9640  -25.4897   12.7501 O.2       5 UNK        -0.5045 
     62 CA        -45.0139  -24.7982   10.6719 C.3       5 UNK         0.0224 
     63 CB        -44.2409  -25.8917    9.9150 C.3       5 UNK        -0.1978 
     64 N         -45.5563  -23.8387    9.7118 N.am      5 UNK        -0.4737 
     65 C         -45.4610  -22.5080    9.8286 C.2       4 UNK         0.5027 
     66 O         -44.9051  -21.9423   10.7705 O.2       4 UNK        -0.5211 
     67 CA        -46.0645  -21.6501    8.7003 C.3       4 UNK         0.0297 
     68 CB        -44.9587  -21.1715    7.7455 C.3       4 UNK        -0.1993 
     69 N         -47.1020  -22.3326    7.9237 N.am      4 UNK        -0.4486 
     70 C         -48.3150  -22.6516    8.3930 C.2       3 UNK         0.4961 
     71 O         -48.6985  -22.3978    9.5346 O.2       3 UNK        -0.5105 
     72 CA        -49.2523  -23.3982    7.4294 C.3       3 UNK         0.0299 
     73 CB        -50.0014  -22.3973    6.5351 C.3       3 UNK        -0.1972 
     74 N         -48.6207  -24.4223    6.5843 N.am      3 UNK        -0.4305 
     75 C         -47.7771  -25.3909    6.9710 C.2       2 UNK         0.5006 
     76 O         -47.2973  -25.4877    8.1021 O.2       2 UNK        -0.5106 
     77 CA        -47.4294  -26.4514    5.9132 C.3       2 UNK         0.0296 
     78 CB        -46.0055  -27.0040    6.1073 C.3       2 UNK        -0.2002 
     79 N         -48.3807  -27.5622    5.9651 N.am      2 UNK        -0.4032 
     80 C         -49.6622  -27.5181    5.5764 C.2       1 UNK         0.5000 
     81 O         -50.1675  -26.5242    5.0480 O.2       1 UNK        -0.5238 
     82 H82       -50.2547  -30.1407    9.6027 H         1 UNK         0.0889 
     83 H83       -48.5198  -30.4490    9.5838 H         1 UNK         0.0889 
     84 H84       -49.6421  -31.6808    9.0005 H         1 UNK         0.0889 
     85 H85       -51.1782  -29.1675    7.7743 H         1 UNK         0.3028 
     86 H86       -50.1152  -29.5437    5.1271 H         1 UNK         0.0864 
     87 H87       -52.4221  -27.7208    5.9417 H         1 UNK         0.0720 
     88 H88       -52.0699  -28.3280    4.3536 H         1 UNK         0.0720 
     89 H89       -55.0648  -30.1575    6.9995 H         1 UNK         0.0814 
     90 H90       -54.6867  -28.5077    6.5879 H         1 UNK         0.0814 
     91 H91       -53.1731  -27.1740    8.0261 H         1 UNK         0.1469 
     92 H92       -51.9966  -28.8152   11.7992 H         1 UNK         0.1381 
     93 H93       -53.9021  -31.3162    8.8796 H         1 UNK         0.1206 
     94 H94       -53.3705  -32.2522   11.0142 H         1 UNK         0.0813 
     95 H95       -51.8216  -31.6396   11.5325 H         1 UNK         0.0813 
     96 H96       -55.3958  -32.4825   13.0117 H         1 UNK         0.0638 
     97 H97       -55.8083  -31.0164   13.8483 H         1 UNK         0.0638 
     98 H98       -55.6783  -31.4245   10.8287 H         1 UNK         0.0568 
     99 H99       -59.4878  -30.8653   11.1920 H         1 UNK         0.3450 
    100 H100      -58.2927  -29.6462   10.8279 H         1 UNK         0.3450 
    101 H101      -55.4946  -29.2841   10.4684 H         1 UNK         0.2987 
    102 H102      -55.0854  -27.0811   10.9036 H         1 UNK         0.0766 
    103 H103      -57.0350  -25.6142   10.2942 H         1 UNK         0.0798 
    104 H104      -58.0789  -26.5215   11.3860 H         1 UNK         0.0798 
    105 H105      -57.4143  -27.2896    9.9488 H         1 UNK         0.0798 
    106 H106      -55.8327  -26.5089   13.5685 H         1 UNK         0.3198 
    107 H107      -54.0080  -23.4611   13.6385 H         1 UNK         0.0843 
    108 H108      -56.3849  -22.6845   13.6169 H         1 UNK         0.0831 
    109 H109      -55.7670  -22.7933   15.2560 H         1 UNK         0.0831 
    110 H110      -56.8531  -24.0382   14.6353 H         1 UNK         0.0831 
    111 H111      -54.9012  -25.1723   15.7312 H         1 UNK         0.3133 
    112 H112      -53.1541  -26.2511   16.9093 H         1 UNK         0.0566 
    113 H113      -53.4860  -28.7400   16.6351 H         1 UNK         0.0814 
    114 H114      -54.7463  -27.8667   15.7846 H         1 UNK         0.0814 
    115 H115      -53.4088  -28.5627   14.8840 H         1 UNK         0.0814 
    116 H116      -50.9584  -26.7510   15.1237 H         1 UNK         0.3091 
    117 H117      -48.8197  -28.0187   17.7683 H         1 UNK         0.0702 
    118 H118      -47.9229  -29.1170   15.7268 H         1 UNK         0.0785 
    119 H119      -49.4144  -28.7679   14.8559 H         1 UNK         0.0785 
    120 H120      -49.4334  -29.8559   16.2343 H         1 UNK         0.0785 
    121 H121      -48.6777  -26.4036   15.2833 H         1 UNK         0.2998 
    122 H122      -47.6399  -23.4969   16.9806 H         1 UNK         0.0697 
    123 H123      -45.6874  -25.3971   15.5707 H         1 UNK         0.0825 
    124 H124      -45.4658  -24.7033   17.1711 H         1 UNK         0.0825 
    125 H125      -45.4756  -23.6569   15.7608 H         1 UNK         0.0825 
    126 H126      -47.4902  -24.3849   14.2273 H         1 UNK         0.3029 
    127 H127      -50.8403  -23.8015   13.3893 H         1 UNK         0.0897 
    128 H128      -50.1102  -22.0341   11.8504 H         1 UNK         0.0792 
    129 H129      -50.0815  -21.4039   13.4871 H         1 UNK         0.0792 
    130 H130      -48.5747  -21.8596   12.7003 H         1 UNK         0.0792 
    131 H131      -48.7281  -24.1091   11.6140 H         1 UNK         0.3086 
    132 H132      -47.7799  -27.4302   12.0913 H         1 UNK         0.0583 
    133 H133      -48.6067  -27.9077    9.8209 H         1 UNK         0.1020 
    134 H134      -49.8156  -28.0912   11.0507 H         1 UNK         0.1020 
    135 H135      -51.8287  -26.4336   11.4229 H         1 UNK         0.0694 
    136 H136      -52.6041  -25.7161   10.0354 H         1 UNK         0.0694 
    137 H137      -47.2863  -25.7529    9.8836 H         1 UNK         0.2989 
    138 H138      -44.3135  -24.3043   11.3494 H         1 UNK         0.1055 
    139 H139      -43.8266  -26.6270   10.6063 H         1 UNK         0.0806 
    140 H140      -43.4067  -25.4685    9.3553 H         1 UNK         0.0806 
    141 H141      -44.8768  -26.4280    9.2096 H         1 UNK         0.0806 
    142 H142      -46.0883  -24.2266    8.9379 H         1 UNK         0.3061 
    143 H143      -46.5164  -20.7721    9.1670 H         1 UNK         0.0734 
    144 H144      -44.1833  -20.6285    8.2879 H         1 UNK         0.0832 
    145 H145      -44.4749  -22.0064    7.2367 H         1 UNK         0.0832 
    146 H146      -45.3526  -20.4955    6.9864 H         1 UNK         0.0832 
    147 H147      -46.8726  -22.5921    6.9753 H         1 UNK         0.3156 
    148 H148      -49.9980  -23.9055    8.0400 H         1 UNK         0.0589 
    149 H149      -49.3271  -21.8856    5.8472 H         1 UNK         0.0808 
    150 H150      -50.7724  -22.8926    5.9444 H         1 UNK         0.0808 
    151 H151      -50.4983  -21.6328    7.1344 H         1 UNK         0.0808 
    152 H152      -48.9910  -24.4972    5.6461 H         1 UNK         0.3098 
    153 H153      -47.4805  -25.9890    4.9253 H         1 UNK         0.0720 
    154 H154      -45.7348  -27.6900    5.3045 H         1 UNK         0.0791 
    155 H155      -45.9034  -27.5399    7.0520 H         1 UNK         0.0791 
    156 H156      -45.2700  -26.1985    6.1079 H         1 UNK         0.0791 
    157 H157      -48.0610  -28.4271    6.3917 H         1 UNK         0.3028 
@<TRIPOS>BOND
     1    1    2 1    
     2    1   82 1    
     3    1   83 1    
     4    1   84 1    
     5    2    3 2    
     6    2    4 am   BACKBONE|DICT|INTERRES
     7    4    5 1    
     8    4   85 1    
     9    5    6 1    
    10    5   80 1    
    11    5   86 1    
    12    6    7 1    
    13    6   87 1    
    14    6   88 1    
    15    7    8 1    
    16    8    9 1    
    17    8   89 1    
    18    8   90 1    
    19    9   10 ar   
    20    9   14 ar   
    21   10   11 ar   
    22   10   91 1    
    23   11   12 ar   
    24   11   58 1    
    25   12   13 ar   
    26   12   92 1    
    27   13   14 ar   
    28   13   15 1    
    29   14   93 1    
    30   15   16 1    
    31   15   94 1    
    32   15   95 1    
    33   16   17 1    
    34   17   18 1    
    35   17   96 1    
    36   17   97 1    
    37   18   19 1    
    38   18   22 1    
    39   18   98 1    
    40   19   20 am   BACKBONE|DICT|INTERRES
    41   19   21 2    
    42   20   99 1    
    43   20  100 1    
    44   22   23 am   BACKBONE|DICT|INTERRES
    45   22  101 1    
    46   23   24 2    
    47   23   25 1    
    48   25   26 1    
    49   25   27 1    
    50   25  102 1    
    51   26  103 1    
    52   26  104 1    
    53   26  105 1    
    54   27   28 am   BACKBONE|DICT|INTERRES
    55   27  106 1    
    56   28   29 2    
    57   28   30 1    
    58   30   31 1    
    59   30   32 1    
    60   30  107 1    
    61   31  108 1    
    62   31  109 1    
    63   31  110 1    
    64   32   33 am   BACKBONE|DICT|INTERRES
    65   32  111 1    
    66   33   34 2    
    67   33   35 1    
    68   35   36 1    
    69   35   37 1    
    70   35  112 1    
    71   36  113 1    
    72   36  114 1    
    73   36  115 1    
    74   37   38 am   BACKBONE|DICT|INTERRES
    75   37  116 1    
    76   38   39 2    
    77   38   40 1    
    78   40   41 1    
    79   40   42 1    
    80   40  117 1    
    81   41  118 1    
    82   41  119 1    
    83   41  120 1    
    84   42   43 am   BACKBONE|DICT|INTERRES
    85   42  121 1    
    86   43   44 2    
    87   43   45 1    
    88   45   46 1    
    89   45   47 1    
    90   45  122 1    
    91   46  123 1    
    92   46  124 1    
    93   46  125 1    
    94   47   48 am   BACKBONE|DICT|INTERRES
    95   47  126 1    
    96   48   49 2    
    97   48   50 1    
    98   50   51 1    
    99   50   52 1    
   100   50  127 1    
   101   51  128 1    
   102   51  129 1    
   103   51  130 1    
   104   52   53 am   BACKBONE|DICT|INTERRES
   105   52  131 1    
   106   53   54 2    
   107   53   55 1    
   108   55   56 1    
   109   55   59 1    
   110   55  132 1    
   111   56   57 1    
   112   56  133 1    
   113   56  134 1    
   114   57   58 1    
   115   58  135 1    
   116   58  136 1    
   117   59   60 am   BACKBONE|DICT|INTERRES
   118   59  137 1    
   119   60   61 2    
   120   60   62 1    
   121   62   63 1    
   122   62   64 1    
   123   62  138 1    
   124   63  139 1    
   125   63  140 1    
   126   63  141 1    
   127   64   65 am   BACKBONE|DICT|INTERRES
   128   64  142 1    
   129   65   66 2    
   130   65   67 1    
   131   67   68 1    
   132   67   69 1    
   133   67  143 1    
   134   68  144 1    
   135   68  145 1    
   136   68  146 1    
   137   69   70 am   BACKBONE|DICT|INTERRES
   138   69  147 1    
   139   70   71 2    
   140   70   72 1    
   141   72   73 1    
   142   72   74 1    
   143   72  148 1    
   144   73  149 1    
   145   73  150 1    
   146   73  151 1    
   147   74   75 am   BACKBONE|DICT|INTERRES
   148   74  152 1    
   149   75   76 2    
   150   75   77 1    
   151   77   78 1    
   152   77   79 1    
   153   77  153 1    
   154   78  154 1    
   155   78  155 1    
   156   78  156 1    
   157   79   80 am   BACKBONE|DICT|INTERRES
   158   79  157 1    
   159   80   81 2    
@<TRIPOS>SUBSTRUCTURE
     1 UNK         1 GROUP             0       ****    0 ROOT    
