@<TRIPOS>MOLECULE
3R207
157   159    1
SMALL
USER_CHARGES


@<TRIPOS>ATOM
      1 CA        -49.9262  -29.8813    8.3194 C.3       0 UNK        -0.1975 
      2 C         -49.9697  -29.4869    6.8535 C.2       0 UNK         0.4852 
      3 O         -49.1584  -29.9685    6.0625 O.2       0 UNK        -0.5216 
      4 N         -50.9158  -28.6132    6.4863 N.am      1 UNK        -0.4461 
      5 CA        -51.1460  -28.1654    5.1049 C.3       1 UNK         0.0864 
      6 C6        -52.5845  -27.6249    4.8987 C.3       14 UNK        -0.0898 
      7 S7        -53.8576  -28.8829    5.2687 S.3       14 UNK        -0.2598 
      8 C8        -54.8114  -28.1064    6.6137 C.3       14 UNK         0.0286 
      9 C9        -53.9817  -27.9270    7.8762 C.ar      14 UNK        -0.0844 
     10 C10       -53.4922  -26.6638    8.2209 C.ar      14 UNK        -0.0881 
     11 C11       -52.7139  -26.4959    9.3679 C.ar      14 UNK        -0.0643 
     12 C12       -52.4290  -27.5983   10.1762 C.ar      14 UNK        -0.0930 
     13 C13       -52.9212  -28.8635    9.8472 C.ar      14 UNK        -0.0827 
     14 C14       -53.7017  -29.0231    8.6986 C.ar      14 UNK        -0.1249 
     15 C15       -52.5544  -30.0588   10.7087 C.3       14 UNK         0.0141 
     16 S16       -53.4035  -30.0325   12.3148 S.3       14 UNK        -0.2313 
     17 C17       -52.2631  -31.0931   13.2730 C.3       14 UNK        -0.0915 
     18 CA        -51.3594  -30.3197   14.2705 C.3       13 UNK         0.0968 
     19 C         -50.3535  -29.3655   13.5685 C.2       13 UNK         0.5732 
     20 N         -49.2741  -29.9003   13.0175 N.am      13 UNK        -0.7310 
     21 O         -50.5516  -28.1528   13.4944 O.2       13 UNK        -0.5035 
     22 N         -52.1761  -29.6172   15.2604 N.am      13 UNK        -0.4233 
     23 C         -51.8371  -29.3844   16.5322 C.2       13 UNK         0.4989 
     24 O         -50.8035  -29.8051   17.0530 O.2       13 UNK        -0.4996 
     25 CA        -52.8050  -28.5277   17.3717 C.3       12 UNK         0.0216 
     26 CB        -52.1483  -27.1835   17.7265 C.3       12 UNK        -0.1964 
     27 N         -54.0819  -28.2665   16.6989 N.am      12 UNK        -0.4276 
     28 C         -55.0781  -29.1433   16.5291 C.2       12 UNK         0.5020 
     29 O         -55.0718  -30.2794   17.0033 O.2       12 UNK        -0.5489 
     30 CA        -56.2663  -28.6981   15.6532 C.3       11 UNK         0.0294 
     31 CB        -57.2603  -27.8431   16.4634 C.3       11 UNK        -0.2019 
     32 N         -55.8958  -28.0399   14.3862 N.am      11 UNK        -0.4493 
     33 C         -55.2820  -26.8620   14.1983 C.2       11 UNK         0.4932 
     34 O         -54.8706  -26.1582   15.1246 O.2       11 UNK        -0.5029 
     35 CA        -55.0266  -26.4330   12.7382 C.3       10 UNK         0.0280 
     36 CB        -56.1931  -26.7554   11.7799 C.3       10 UNK        -0.1976 
     37 N         -54.6344  -25.0229   12.6500 N.am      10 UNK        -0.4242 
     38 C         -55.3516  -23.9358   12.9683 C.2       10 UNK         0.5072 
     39 O         -56.5577  -23.9475   13.2248 O.2       10 UNK        -0.5224 
     40 CA        -54.5527  -22.6150   13.0563 C.3       9 UNK         0.0343 
     41 CB        -55.4585  -21.3851   13.2553 C.3       9 UNK        -0.2003 
     42 N         -53.5552  -22.6503   14.1356 N.am      9 UNK        -0.4272 
     43 C         -52.4241  -23.3672   14.1089 C.2       9 UNK         0.4988 
     44 O         -52.0704  -24.0240   13.1248 O.2       9 UNK        -0.5108 
     45 CA        -51.5609  -23.3982   15.3797 C.3       8 UNK         0.0248 
     46 CB        -52.3867  -23.6965   16.6473 C.3       8 UNK        -0.2001 
     47 N         -50.5576  -24.4347   15.1646 N.am      8 UNK        -0.4140 
     48 C         -49.3634  -24.5653   15.7472 C.2       8 UNK         0.5028 
     49 O         -48.9656  -23.8583   16.6738 O.2       8 UNK        -0.5428 
     50 CA        -48.4507  -25.6694   15.1806 C.3       7 UNK         0.0264 
     51 CB        -48.5569  -26.9458   16.0299 C.3       7 UNK        -0.1988 
     52 N         -48.7678  -25.9919   13.7832 N.am      7 UNK        -0.4454 
     53 C         -48.3722  -25.2624   12.7311 C.2       7 UNK         0.5027 
     54 O         -47.6227  -24.2883   12.8228 O.2       7 UNK        -0.5083 
     55 CA        -48.9159  -25.6731   11.3455 C.3       6 UNK         0.0844 
     56 C56       -49.5833  -24.4609   10.6472 C.3       14 UNK        -0.0967 
     57 S57       -50.4746  -24.9211    9.1235 S.3       14 UNK        -0.2604 
     58 C58       -52.1747  -25.1262    9.7325 C.3       14 UNK         0.0134 
     59 N         -47.8535  -26.2498   10.5189 N.am      6 UNK        -0.4116 
     60 C         -47.1783  -27.3769   10.7810 C.2       5 UNK         0.5034 
     61 O         -47.4328  -28.1247   11.7255 O.2       5 UNK        -0.5045 
     62 CA        -46.0252  -27.7471    9.8340 C.3       5 UNK         0.0224 
     63 CB        -46.4936  -28.7670    8.7856 C.3       5 UNK        -0.1978 
     64 N         -45.4728  -26.5785    9.1451 N.am      5 UNK        -0.4737 
     65 C         -44.3852  -25.9039    9.5420 C.2       4 UNK         0.5027 
     66 O         -43.7169  -26.2074   10.5305 O.2       4 UNK        -0.5211 
     67 CA        -43.9498  -24.6961    8.6900 C.3       4 UNK         0.0297 
     68 CB        -42.8595  -25.1146    7.6903 C.3       4 UNK        -0.1993 
     69 N         -45.0547  -24.0709    7.9598 N.am      4 UNK        -0.4486 
     70 C         -46.0232  -23.3401    8.5279 C.2       3 UNK         0.4961 
     71 O         -46.0483  -23.0485    9.7228 O.2       3 UNK        -0.5105 
     72 CA        -47.1725  -22.8676    7.6179 C.3       3 UNK         0.0299 
     73 CB        -46.9112  -21.4328    7.1320 C.3       3 UNK        -0.1972 
     74 N         -47.4532  -23.7269    6.4594 N.am      3 UNK        -0.4305 
     75 C         -47.7616  -25.0297    6.5110 C.2       2 UNK         0.5006 
     76 O         -47.7081  -25.7151    7.5346 O.2       2 UNK        -0.5106 
     77 CA        -48.1589  -25.6945    5.1937 C.3       2 UNK         0.0296 
     78 CB        -46.9485  -26.4009    4.5557 C.3       2 UNK        -0.2002 
     79 N         -49.2163  -26.6572    5.4829 N.am      2 UNK        -0.4032 
     80 C         -50.0918  -27.1519    4.5988 C.2       1 UNK         0.5000 
     81 O         -50.0927  -26.8381    3.4063 O.2       1 UNK        -0.5238 
     82 H82       -49.9902  -29.0044    8.9641 H         1 UNK         0.0889 
     83 H83       -49.0024  -30.4089    8.5513 H         1 UNK         0.0889 
     84 H84       -50.7554  -30.5501    8.5438 H         1 UNK         0.0889 
     85 H85       -51.5784  -28.2734    7.1722 H         1 UNK         0.3028 
     86 H86       -51.0392  -29.0404    4.4596 H         1 UNK         0.0864 
     87 H87       -52.7322  -27.3212    3.8605 H         1 UNK         0.0720 
     88 H88       -52.7496  -26.7284    5.4969 H         1 UNK         0.0720 
     89 H89       -55.6768  -28.7316    6.8381 H         1 UNK         0.0814 
     90 H90       -55.2096  -27.1506    6.2694 H         1 UNK         0.0814 
     91 H91       -53.7086  -25.8102    7.5931 H         1 UNK         0.1469 
     92 H92       -51.8201  -27.4748   11.0615 H         1 UNK         0.1381 
     93 H93       -54.0760  -30.0019    8.4308 H         1 UNK         0.1206 
     94 H94       -52.7846  -30.9955   10.1988 H         1 UNK         0.0813 
     95 H95       -51.4754  -30.0499   10.8659 H         1 UNK         0.0813 
     96 H96       -51.6547  -31.6962   12.5968 H         1 UNK         0.0638 
     97 H97       -52.8724  -31.8113   13.8237 H         1 UNK         0.0638 
     98 H98       -50.7633  -31.0648   14.8011 H         1 UNK         0.0568 
     99 H99       -49.0922  -30.8896   13.0666 H         1 UNK         0.3450 
    100 H100      -48.6069  -29.2876   12.5552 H         1 UNK         0.3450 
    101 H101      -53.0213  -29.2001   14.9034 H         1 UNK         0.2987 
    102 H102      -53.0077  -29.0709   18.2969 H         1 UNK         0.0766 
    103 H103      -51.8801  -26.6232   16.8305 H         1 UNK         0.0798 
    104 H104      -51.2327  -27.3335   18.3004 H         1 UNK         0.0798 
    105 H105      -52.8095  -26.5616   18.3301 H         1 UNK         0.0798 
    106 H106      -54.2021  -27.3545   16.2576 H         1 UNK         0.3198 
    107 H107      -56.7900  -29.6106   15.3624 H         1 UNK         0.0843 
    108 H108      -56.8153  -26.9079   16.8045 H         1 UNK         0.0831 
    109 H109      -57.6015  -28.3797   17.3497 H         1 UNK         0.0831 
    110 H110      -58.1435  -27.5974   15.8739 H         1 UNK         0.0831 
    111 H111      -56.1398  -28.5630   13.5561 H         1 UNK         0.3133 
    112 H112      -54.1568  -26.9992   12.4049 H         1 UNK         0.0566 
    113 H113      -55.9995  -26.3606   10.7821 H         1 UNK         0.0814 
    114 H114      -56.3311  -27.8311   11.6679 H         1 UNK         0.0814 
    115 H115      -57.1366  -26.3349   12.1295 H         1 UNK         0.0814 
    116 H116      -53.6335  -24.8630   12.5664 H         1 UNK         0.3091 
    117 H117      -54.0308  -22.4891   12.1050 H         1 UNK         0.0702 
    118 H118      -56.1986  -21.3126   12.4572 H         1 UNK         0.0785 
    119 H119      -56.0011  -21.4308   14.2005 H         1 UNK         0.0785 
    120 H120      -54.8807  -20.4608   13.2438 H         1 UNK         0.0785 
    121 H121      -53.7993  -22.1637   14.9859 H         1 UNK         0.2998 
    122 H122      -51.0595  -22.4337   15.4793 H         1 UNK         0.0697 
    123 H123      -53.0392  -24.5592   16.5089 H         1 UNK         0.0825 
    124 H124      -53.0200  -22.8503   16.9141 H         1 UNK         0.0825 
    125 H125      -51.7460  -23.8955   17.5065 H         1 UNK         0.0825 
    126 H126      -50.7644  -25.0179   14.3622 H         1 UNK         0.3029 
    127 H127      -47.4211  -25.3086   15.2349 H         1 UNK         0.0897 
    128 H128      -47.8813  -27.7209   15.6675 H         1 UNK         0.0792 
    129 H129      -49.5675  -27.3536   16.0193 H         1 UNK         0.0792 
    130 H130      -48.2966  -26.7469   17.0704 H         1 UNK         0.0792 
    131 H131      -49.3741  -26.7977   13.6264 H         1 UNK         0.3086 
    132 H132      -49.6760  -26.4429   11.4901 H         1 UNK         0.0583 
    133 H133      -50.2680  -23.9436   11.3194 H         1 UNK         0.1020 
    134 H134      -48.8276  -23.7180   10.3856 H         1 UNK         0.1020 
    135 H135      -52.2165  -25.0097   10.8128 H         1 UNK         0.0694 
    136 H136      -52.8037  -24.3385    9.3154 H         1 UNK         0.0694 
    137 H137      -47.6241  -25.7419    9.6743 H         1 UNK         0.2989 
    138 H138      -45.2496  -28.2215   10.4397 H         1 UNK         0.1055 
    139 H139      -46.8644  -29.6722    9.2673 H         1 UNK         0.0806 
    140 H140      -45.6760  -29.0642    8.1287 H         1 UNK         0.0806 
    141 H141      -47.2947  -28.3690    8.1619 H         1 UNK         0.0806 
    142 H142      -46.0081  -26.2325    8.3544 H         1 UNK         0.3061 
    143 H143      -43.5241  -23.9526    9.3676 H         1 UNK         0.0734 
    144 H144      -42.0072  -25.5583    8.2071 H         1 UNK         0.0832 
    145 H145      -42.4848  -24.2588    7.1285 H         1 UNK         0.0832 
    146 H146      -43.2267  -25.8531    6.9763 H         1 UNK         0.0832 
    147 H147      -45.1128  -24.2524    6.9684 H         1 UNK         0.3156 
    148 H148      -48.0776  -22.8558    8.2277 H         1 UNK         0.0589 
    149 H149      -46.0408  -21.3805    6.4767 H         1 UNK         0.0808 
    150 H150      -47.7677  -21.0341    6.5879 H         1 UNK         0.0808 
    151 H151      -46.7262  -20.7629    7.9731 H         1 UNK         0.0808 
    152 H152      -47.4964  -23.2615    5.5637 H         1 UNK         0.3098 
    153 H153      -48.5447  -24.9338    4.5116 H         1 UNK         0.0720 
    154 H154      -47.2132  -26.8636    3.6049 H         1 UNK         0.0791 
    155 H155      -46.5511  -27.1812    5.2066 H         1 UNK         0.0791 
    156 H156      -46.1410  -25.6953    4.3571 H         1 UNK         0.0791 
    157 H157      -49.2826  -26.9284    6.4560 H         1 UNK         0.3028 
@<TRIPOS>BOND
     1    1    2 1    
     2    1   82 1    
     3    1   83 1    
     4    1   84 1    
     5    2    3 2    
     6    2    4 am   BACKBONE|DICT|INTERRES
     7    4    5 1    
     8    4   85 1    
     9    5    6 1    
    10    5   80 1    
    11    5   86 1    
    12    6    7 1    
    13    6   87 1    
    14    6   88 1    
    15    7    8 1    
    16    8    9 1    
    17    8   89 1    
    18    8   90 1    
    19    9   10 ar   
    20    9   14 ar   
    21   10   11 ar   
    22   10   91 1    
    23   11   12 ar   
    24   11   58 1    
    25   12   13 ar   
    26   12   92 1    
    27   13   14 ar   
    28   13   15 1    
    29   14   93 1    
    30   15   16 1    
    31   15   94 1    
    32   15   95 1    
    33   16   17 1    
    34   17   18 1    
    35   17   96 1    
    36   17   97 1    
    37   18   19 1    
    38   18   22 1    
    39   18   98 1    
    40   19   20 am   BACKBONE|DICT|INTERRES
    41   19   21 2    
    42   20   99 1    
    43   20  100 1    
    44   22   23 am   BACKBONE|DICT|INTERRES
    45   22  101 1    
    46   23   24 2    
    47   23   25 1    
    48   25   26 1    
    49   25   27 1    
    50   25  102 1    
    51   26  103 1    
    52   26  104 1    
    53   26  105 1    
    54   27   28 am   BACKBONE|DICT|INTERRES
    55   27  106 1    
    56   28   29 2    
    57   28   30 1    
    58   30   31 1    
    59   30   32 1    
    60   30  107 1    
    61   31  108 1    
    62   31  109 1    
    63   31  110 1    
    64   32   33 am   BACKBONE|DICT|INTERRES
    65   32  111 1    
    66   33   34 2    
    67   33   35 1    
    68   35   36 1    
    69   35   37 1    
    70   35  112 1    
    71   36  113 1    
    72   36  114 1    
    73   36  115 1    
    74   37   38 am   BACKBONE|DICT|INTERRES
    75   37  116 1    
    76   38   39 2    
    77   38   40 1    
    78   40   41 1    
    79   40   42 1    
    80   40  117 1    
    81   41  118 1    
    82   41  119 1    
    83   41  120 1    
    84   42   43 am   BACKBONE|DICT|INTERRES
    85   42  121 1    
    86   43   44 2    
    87   43   45 1    
    88   45   46 1    
    89   45   47 1    
    90   45  122 1    
    91   46  123 1    
    92   46  124 1    
    93   46  125 1    
    94   47   48 am   BACKBONE|DICT|INTERRES
    95   47  126 1    
    96   48   49 2    
    97   48   50 1    
    98   50   51 1    
    99   50   52 1    
   100   50  127 1    
   101   51  128 1    
   102   51  129 1    
   103   51  130 1    
   104   52   53 am   BACKBONE|DICT|INTERRES
   105   52  131 1    
   106   53   54 2    
   107   53   55 1    
   108   55   56 1    
   109   55   59 1    
   110   55  132 1    
   111   56   57 1    
   112   56  133 1    
   113   56  134 1    
   114   57   58 1    
   115   58  135 1    
   116   58  136 1    
   117   59   60 am   BACKBONE|DICT|INTERRES
   118   59  137 1    
   119   60   61 2    
   120   60   62 1    
   121   62   63 1    
   122   62   64 1    
   123   62  138 1    
   124   63  139 1    
   125   63  140 1    
   126   63  141 1    
   127   64   65 am   BACKBONE|DICT|INTERRES
   128   64  142 1    
   129   65   66 2    
   130   65   67 1    
   131   67   68 1    
   132   67   69 1    
   133   67  143 1    
   134   68  144 1    
   135   68  145 1    
   136   68  146 1    
   137   69   70 am   BACKBONE|DICT|INTERRES
   138   69  147 1    
   139   70   71 2    
   140   70   72 1    
   141   72   73 1    
   142   72   74 1    
   143   72  148 1    
   144   73  149 1    
   145   73  150 1    
   146   73  151 1    
   147   74   75 am   BACKBONE|DICT|INTERRES
   148   74  152 1    
   149   75   76 2    
   150   75   77 1    
   151   77   78 1    
   152   77   79 1    
   153   77  153 1    
   154   78  154 1    
   155   78  155 1    
   156   78  156 1    
   157   79   80 am   BACKBONE|DICT|INTERRES
   158   79  157 1    
   159   80   81 2    
@<TRIPOS>SUBSTRUCTURE
     1 UNK         1 GROUP             0       ****    0 ROOT    
