@<TRIPOS>MOLECULE
3R207
157   159    1
SMALL
USER_CHARGES


@<TRIPOS>ATOM
      1 CA        -47.0087  -32.0515    7.0166 C.3       0 UNK        -0.1975 
      2 C         -47.4037  -30.6522    7.4644 C.2       0 UNK         0.4852 
      3 O         -47.9786  -30.5010    8.5410 O.2       0 UNK        -0.5216 
      4 N         -47.0981  -29.6383    6.6408 N.am      1 UNK        -0.4461 
      5 CA        -47.4045  -28.2133    6.8493 C.3       1 UNK         0.0864 
      6 C6        -48.9226  -27.8889    6.8291 C.3       14 UNK        -0.0898 
      7 S7        -49.6843  -28.3173    5.2273 S.3       14 UNK        -0.2598 
      8 C8        -50.7541  -29.7169    5.6864 C.3       14 UNK         0.0286 
      9 C9        -51.9169  -29.2815    6.5664 C.ar      14 UNK        -0.0844 
     10 C10       -52.8872  -28.4092    6.0647 C.ar      14 UNK        -0.0881 
     11 C11       -53.9575  -28.0006    6.8643 C.ar      14 UNK        -0.0643 
     12 C12       -54.0705  -28.4953    8.1677 C.ar      14 UNK        -0.0930 
     13 C13       -53.1065  -29.3690    8.6796 C.ar      14 UNK        -0.0827 
     14 C14       -52.0284  -29.7543    7.8773 C.ar      14 UNK        -0.1249 
     15 C15       -53.2386  -29.9080   10.0939 C.3       14 UNK         0.0141 
     16 S16       -52.5709  -28.7401   11.3155 S.3       14 UNK        -0.2313 
     17 C17       -52.9100  -29.6596   12.8515 C.3       14 UNK        -0.0915 
     18 CA        -54.2776  -29.2904   13.4849 C.3       13 UNK         0.0968 
     19 C         -54.6621  -30.2430   14.6559 C.2       13 UNK         0.5732 
     20 N         -55.2400  -29.7681   15.7527 N.am      13 UNK        -0.7310 
     21 O         -54.4469  -31.4494   14.5674 O.2       13 UNK        -0.5035 
     22 N         -54.3520  -27.8634   13.8458 N.am      13 UNK        -0.4233 
     23 C         -55.4003  -27.0745   13.5772 C.2       13 UNK         0.4989 
     24 O         -56.3845  -27.4396   12.9297 O.2       13 UNK        -0.4996 
     25 CA        -55.3577  -25.6498   14.1698 C.3       12 UNK         0.0216 
     26 CB        -56.6854  -24.8863   13.9826 C.3       12 UNK        -0.1964 
     27 N         -54.9552  -25.6081   15.5822 N.am      12 UNK        -0.4276 
     28 C         -55.4508  -26.3147   16.6092 C.2       12 UNK         0.5020 
     29 O         -56.3332  -27.1657   16.4871 O.2       12 UNK        -0.5489 
     30 CA        -54.8363  -26.0492   18.0023 C.3       11 UNK         0.0294 
     31 CB        -55.2421  -27.1154   19.0376 C.3       11 UNK        -0.2019 
     32 N         -53.3731  -25.9622   17.9676 N.am      11 UNK        -0.4493 
     33 C         -52.6676  -24.9077   17.5403 C.2       11 UNK         0.4932 
     34 O         -53.1838  -23.8573   17.1583 O.2       11 UNK        -0.5029 
     35 CA        -51.1399  -25.0607   17.4682 C.3       10 UNK         0.0280 
     36 CB        -50.4918  -24.5369   18.7600 C.3       10 UNK        -0.1976 
     37 N         -50.6482  -26.4173   17.1933 N.am      10 UNK        -0.4242 
     38 C         -50.9867  -27.1830   16.1467 C.2       10 UNK         0.5072 
     39 O         -51.9118  -26.9410   15.3614 O.2       10 UNK        -0.5224 
     40 CA        -50.1269  -28.4303   15.9137 C.3       9 UNK         0.0343 
     41 CB        -50.8827  -29.7043   16.3250 C.3       9 UNK        -0.2003 
     42 N         -49.8602  -28.4442   14.4820 N.am      9 UNK        -0.4272 
     43 C         -48.6752  -28.2115   13.9071 C.2       9 UNK         0.4988 
     44 O         -47.5915  -28.3082   14.4834 O.2       9 UNK        -0.5108 
     45 CA        -48.7260  -27.7180   12.4483 C.3       8 UNK         0.0248 
     46 CB        -48.6718  -28.8984   11.4668 C.3       8 UNK        -0.2001 
     47 N         -49.9177  -26.9051   12.1708 N.am      8 UNK        -0.4140 
     48 C         -50.1815  -25.7185   12.7397 C.2       8 UNK         0.5028 
     49 O         -49.3992  -25.1285   13.4859 O.2       8 UNK        -0.5428 
     50 CA        -51.5412  -25.0943   12.4030 C.3       7 UNK         0.0264 
     51 CB        -51.7312  -23.6811   12.9903 C.3       7 UNK        -0.1988 
     52 N         -51.7338  -25.0755   10.9542 N.am      7 UNK        -0.4454 
     53 C         -52.9250  -25.1331   10.3455 C.2       7 UNK         0.5027 
     54 O         -53.9946  -25.1859   10.9551 O.2       7 UNK        -0.5083 
     55 CA        -52.9083  -25.1258    8.7999 C.3       6 UNK         0.0844 
     56 C56       -54.3355  -25.0075    8.1916 C.3       14 UNK        -0.0967 
     57 S57       -54.3605  -25.3012    6.3911 S.3       14 UNK        -0.2604 
     58 C58       -54.9786  -27.0146    6.3168 C.3       14 UNK         0.0134 
     59 N         -51.9565  -24.1398    8.2664 N.am      6 UNK        -0.4116 
     60 C         -52.0195  -22.8092    8.4155 C.2       5 UNK         0.5034 
     61 O         -52.8961  -22.2242    9.0543 O.2       5 UNK        -0.5045 
     62 CA        -50.8815  -22.0017    7.7663 C.3       5 UNK         0.0224 
     63 CB        -51.2255  -20.5065    7.6255 C.3       5 UNK        -0.1978 
     64 N         -49.6484  -22.1317    8.5448 N.am      5 UNK        -0.4737 
     65 C         -48.7974  -23.1598    8.4604 C.2       4 UNK         0.5027 
     66 O         -48.9623  -24.1178    7.7022 O.2       4 UNK        -0.5211 
     67 CA        -47.5966  -23.1234    9.4132 C.3       4 UNK         0.0297 
     68 CB        -47.9401  -23.8419   10.7257 C.3       4 UNK        -0.1993 
     69 N         -46.4511  -23.7937    8.8017 N.am      4 UNK        -0.4486 
     70 C         -45.3059  -23.1916    8.4506 C.2       3 UNK         0.4961 
     71 O         -45.0979  -21.9876    8.6139 O.2       3 UNK        -0.5105 
     72 CA        -44.2090  -24.0581    7.7904 C.3       3 UNK         0.0299 
     73 CB        -42.7855  -23.5272    8.0668 C.3       3 UNK        -0.1972 
     74 N         -44.3021  -25.4896    8.1024 N.am      3 UNK        -0.4305 
     75 C         -44.2119  -26.0788    9.3063 C.2       2 UNK         0.5006 
     76 O         -43.9379  -25.4790   10.3472 O.2       2 UNK        -0.5106 
     77 CA        -44.4977  -27.5978    9.3467 C.3       2 UNK         0.0296 
     78 CB        -44.9865  -28.0673   10.7331 C.3       2 UNK        -0.2002 
     79 N         -45.4241  -28.0553    8.2971 N.am      2 UNK        -0.4032 
     80 C         -46.6744  -27.6145    8.0730 C.2       1 UNK         0.5000 
     81 O         -47.2140  -26.7375    8.7498 O.2       1 UNK        -0.5238 
     82 H82       -46.5271  -32.0481    6.0384 H         1 UNK         0.0889 
     83 H83       -47.8917  -32.6879    6.9572 H         1 UNK         0.0889 
     84 H84       -46.3176  -32.4931    7.7345 H         1 UNK         0.0889 
     85 H85       -46.6349  -29.8481    5.7671 H         1 UNK         0.3028 
     86 H86       -46.9642  -27.6952    5.9958 H         1 UNK         0.0864 
     87 H87       -49.0918  -26.8210    6.9783 H         1 UNK         0.0720 
     88 H88       -49.4383  -28.3904    7.6491 H         1 UNK         0.0720 
     89 H89       -50.1548  -30.4841    6.1784 H         1 UNK         0.0814 
     90 H90       -51.1484  -30.1727    4.7772 H         1 UNK         0.0814 
     91 H91       -52.7967  -28.0305    5.0555 H         1 UNK         0.1469 
     92 H92       -54.8992  -28.1899    8.7918 H         1 UNK         0.1381 
     93 H93       -51.2774  -30.4249    8.2734 H         1 UNK         0.1206 
     94 H94       -52.7182  -30.8630   10.1828 H         1 UNK         0.0813 
     95 H95       -54.2881  -30.1061   10.3170 H         1 UNK         0.0813 
     96 H96       -52.1058  -29.4628   13.5550 H         1 UNK         0.0638 
     97 H97       -52.8542  -30.7268   12.6297 H         1 UNK         0.0638 
     98 H98       -55.0279  -29.5018   12.7216 H         1 UNK         0.0568 
     99 H99       -55.5136  -28.7937   15.8335 H         1 UNK         0.3450 
    100 H100      -55.4828  -30.4124   16.4874 H         1 UNK         0.3450 
    101 H101      -53.5926  -27.5034   14.4159 H         1 UNK         0.2987 
    102 H102      -54.5880  -25.1124   13.6150 H         1 UNK         0.0766 
    103 H103      -56.9513  -24.8181   12.9267 H         1 UNK         0.0798 
    104 H104      -56.6144  -23.8673   14.3629 H         1 UNK         0.0798 
    105 H105      -57.5097  -25.3809   14.4979 H         1 UNK         0.0798 
    106 H106      -54.2218  -24.9451   15.8131 H         1 UNK         0.3198 
    107 H107      -55.2334  -25.0901   18.3423 H         1 UNK         0.0843 
    108 H108      -54.9024  -28.1101   18.7460 H         1 UNK         0.0831 
    109 H109      -56.3264  -27.1611   19.1493 H         1 UNK         0.0831 
    110 H110      -54.8286  -26.8928   20.0214 H         1 UNK         0.0831 
    111 H111      -52.8647  -26.7985   18.2157 H         1 UNK         0.3133 
    112 H112      -50.7990  -24.4332   16.6419 H         1 UNK         0.0566 
    113 H113      -49.4049  -24.5112   18.6790 H         1 UNK         0.0814 
    114 H114      -50.7516  -25.1539   19.6212 H         1 UNK         0.0814 
    115 H115      -50.8202  -23.5193   18.9779 H         1 UNK         0.0814 
    116 H116      -49.8890  -26.7328   17.7803 H         1 UNK         0.3091 
    117 H117      -49.1969  -28.3591   16.4821 H         1 UNK         0.0702 
    118 H118      -50.3333  -30.6006   16.0368 H         1 UNK         0.0785 
    119 H119      -51.8738  -29.7600   15.8749 H         1 UNK         0.0785 
    120 H120      -51.0186  -29.7405   17.4065 H         1 UNK         0.0785 
    121 H121      -50.6780  -28.2643   13.9170 H         1 UNK         0.2998 
    122 H122      -47.8510  -27.0872   12.2810 H         1 UNK         0.0697 
    123 H123      -49.5268  -29.5656   11.5815 H         1 UNK         0.0825 
    124 H124      -47.7709  -29.4938   11.6202 H         1 UNK         0.0825 
    125 H125      -48.6539  -28.5527   10.4329 H         1 UNK         0.0825 
    126 H126      -50.6205  -27.3221   11.5736 H         1 UNK         0.3029 
    127 H127      -52.2890  -25.7511   12.8527 H         1 UNK         0.0897 
    128 H128      -51.0037  -22.9768   12.5859 H         1 UNK         0.0792 
    129 H129      -51.6142  -23.6913   14.0750 H         1 UNK         0.0792 
    130 H130      -52.7272  -23.2923   12.7783 H         1 UNK         0.0792 
    131 H131      -50.8965  -25.0400   10.3894 H         1 UNK         0.3086 
    132 H132      -52.5081  -26.1003    8.5173 H         1 UNK         0.0583 
    133 H133      -55.0201  -25.7128    8.6653 H         1 UNK         0.1020 
    134 H134      -54.7572  -24.0207    8.3884 H         1 UNK         0.1020 
    135 H135      -55.9227  -27.0907    6.8586 H         1 UNK         0.0694 
    136 H136      -55.2039  -27.2627    5.2785 H         1 UNK         0.0694 
    137 H137      -51.1608  -24.5162    7.7647 H         1 UNK         0.2989 
    138 H138      -50.7220  -22.4001    6.7611 H         1 UNK         0.1055 
    139 H139      -51.3728  -20.0285    8.5949 H         1 UNK         0.0806 
    140 H140      -52.1437  -20.3707    7.0524 H         1 UNK         0.0806 
    141 H141      -50.4363  -19.9663    7.1023 H         1 UNK         0.0806 
    142 H142      -49.4668  -21.4026    9.2205 H         1 UNK         0.3061 
    143 H143      -47.3620  -22.0813    9.6400 H         1 UNK         0.0734 
    144 H144      -48.1992  -24.8877   10.5551 H         1 UNK         0.0832 
    145 H145      -47.1009  -23.8200   11.4212 H         1 UNK         0.0832 
    146 H146      -48.7853  -23.3671   11.2250 H         1 UNK         0.0832 
    147 H147      -46.5865  -24.7819    8.6076 H         1 UNK         0.3156 
    148 H148      -44.3812  -23.9783    6.7161 H         1 UNK         0.0589 
    149 H149      -42.0296  -24.1443    7.5812 H         1 UNK         0.0808 
    150 H150      -42.6639  -22.5122    7.6865 H         1 UNK         0.0808 
    151 H151      -42.5632  -23.5012    9.1340 H         1 UNK         0.0808 
    152 H152      -44.5194  -26.0857    7.3165 H         1 UNK         0.3098 
    153 H153      -43.5439  -28.0889    9.1489 H         1 UNK         0.0720 
    154 H154      -44.2375  -27.8741   11.5019 H         1 UNK         0.0791 
    155 H155      -45.1917  -29.1377   10.7419 H         1 UNK         0.0791 
    156 H156      -45.8978  -27.5489   11.0297 H         1 UNK         0.0791 
    157 H157      -45.0665  -28.7723    7.6808 H         1 UNK         0.3028 
@<TRIPOS>BOND
     1    1    2 1    
     2    1   82 1    
     3    1   83 1    
     4    1   84 1    
     5    2    3 2    
     6    2    4 am   BACKBONE|DICT|INTERRES
     7    4    5 1    
     8    4   85 1    
     9    5    6 1    
    10    5   80 1    
    11    5   86 1    
    12    6    7 1    
    13    6   87 1    
    14    6   88 1    
    15    7    8 1    
    16    8    9 1    
    17    8   89 1    
    18    8   90 1    
    19    9   10 ar   
    20    9   14 ar   
    21   10   11 ar   
    22   10   91 1    
    23   11   12 ar   
    24   11   58 1    
    25   12   13 ar   
    26   12   92 1    
    27   13   14 ar   
    28   13   15 1    
    29   14   93 1    
    30   15   16 1    
    31   15   94 1    
    32   15   95 1    
    33   16   17 1    
    34   17   18 1    
    35   17   96 1    
    36   17   97 1    
    37   18   19 1    
    38   18   22 1    
    39   18   98 1    
    40   19   20 am   BACKBONE|DICT|INTERRES
    41   19   21 2    
    42   20   99 1    
    43   20  100 1    
    44   22   23 am   BACKBONE|DICT|INTERRES
    45   22  101 1    
    46   23   24 2    
    47   23   25 1    
    48   25   26 1    
    49   25   27 1    
    50   25  102 1    
    51   26  103 1    
    52   26  104 1    
    53   26  105 1    
    54   27   28 am   BACKBONE|DICT|INTERRES
    55   27  106 1    
    56   28   29 2    
    57   28   30 1    
    58   30   31 1    
    59   30   32 1    
    60   30  107 1    
    61   31  108 1    
    62   31  109 1    
    63   31  110 1    
    64   32   33 am   BACKBONE|DICT|INTERRES
    65   32  111 1    
    66   33   34 2    
    67   33   35 1    
    68   35   36 1    
    69   35   37 1    
    70   35  112 1    
    71   36  113 1    
    72   36  114 1    
    73   36  115 1    
    74   37   38 am   BACKBONE|DICT|INTERRES
    75   37  116 1    
    76   38   39 2    
    77   38   40 1    
    78   40   41 1    
    79   40   42 1    
    80   40  117 1    
    81   41  118 1    
    82   41  119 1    
    83   41  120 1    
    84   42   43 am   BACKBONE|DICT|INTERRES
    85   42  121 1    
    86   43   44 2    
    87   43   45 1    
    88   45   46 1    
    89   45   47 1    
    90   45  122 1    
    91   46  123 1    
    92   46  124 1    
    93   46  125 1    
    94   47   48 am   BACKBONE|DICT|INTERRES
    95   47  126 1    
    96   48   49 2    
    97   48   50 1    
    98   50   51 1    
    99   50   52 1    
   100   50  127 1    
   101   51  128 1    
   102   51  129 1    
   103   51  130 1    
   104   52   53 am   BACKBONE|DICT|INTERRES
   105   52  131 1    
   106   53   54 2    
   107   53   55 1    
   108   55   56 1    
   109   55   59 1    
   110   55  132 1    
   111   56   57 1    
   112   56  133 1    
   113   56  134 1    
   114   57   58 1    
   115   58  135 1    
   116   58  136 1    
   117   59   60 am   BACKBONE|DICT|INTERRES
   118   59  137 1    
   119   60   61 2    
   120   60   62 1    
   121   62   63 1    
   122   62   64 1    
   123   62  138 1    
   124   63  139 1    
   125   63  140 1    
   126   63  141 1    
   127   64   65 am   BACKBONE|DICT|INTERRES
   128   64  142 1    
   129   65   66 2    
   130   65   67 1    
   131   67   68 1    
   132   67   69 1    
   133   67  143 1    
   134   68  144 1    
   135   68  145 1    
   136   68  146 1    
   137   69   70 am   BACKBONE|DICT|INTERRES
   138   69  147 1    
   139   70   71 2    
   140   70   72 1    
   141   72   73 1    
   142   72   74 1    
   143   72  148 1    
   144   73  149 1    
   145   73  150 1    
   146   73  151 1    
   147   74   75 am   BACKBONE|DICT|INTERRES
   148   74  152 1    
   149   75   76 2    
   150   75   77 1    
   151   77   78 1    
   152   77   79 1    
   153   77  153 1    
   154   78  154 1    
   155   78  155 1    
   156   78  156 1    
   157   79   80 am   BACKBONE|DICT|INTERRES
   158   79  157 1    
   159   80   81 2    
@<TRIPOS>SUBSTRUCTURE
     1 UNK         1 GROUP             0       ****    0 ROOT    
