@<TRIPOS>MOLECULE
3R207
157   159    1
SMALL
USER_CHARGES


@<TRIPOS>ATOM
      1 CA        -53.1234  -24.4519    2.7564 C.3       0 UNK        -0.1975 
      2 C         -52.3867  -25.1730    3.8748 C.2       0 UNK         0.4852 
      3 O         -52.2092  -24.6106    4.9572 O.2       0 UNK        -0.5216 
      4 N         -51.9461  -26.4133    3.6265 N.am      1 UNK        -0.4461 
      5 CA        -51.2286  -27.2637    4.5836 C.3       1 UNK         0.0864 
      6 C6        -51.4106  -28.7742    4.2770 C.3       14 UNK        -0.0898 
      7 S7        -53.1667  -29.2772    4.3189 S.3       14 UNK        -0.2598 
      8 C8        -53.2503  -30.3224    5.8181 C.3       14 UNK         0.0286 
      9 C9        -52.8851  -29.6113    7.1214 C.ar      14 UNK        -0.0844 
     10 C10       -53.2159  -28.2702    7.3466 C.ar      14 UNK        -0.0881 
     11 C11       -52.8499  -27.6209    8.5294 C.ar      14 UNK        -0.0643 
     12 C12       -52.1994  -28.3579    9.5279 C.ar      14 UNK        -0.0930 
     13 C13       -51.8828  -29.7045    9.3311 C.ar      14 UNK        -0.0827 
     14 C14       -52.2211  -30.3224    8.1247 C.ar      14 UNK        -0.1249 
     15 C15       -51.1612  -30.4857   10.4196 C.3       14 UNK         0.0141 
     16 S16       -52.1617  -30.6407   11.9329 S.3       14 UNK        -0.2313 
     17 C17       -53.5333  -31.6917   11.3491 C.3       14 UNK        -0.0915 
     18 CA        -54.8124  -30.8885   10.9908 C.3       13 UNK         0.0968 
     19 C         -55.8827  -31.8317   10.3662 C.2       13 UNK         0.5732 
     20 N         -57.0013  -32.1035   11.0286 N.am      13 UNK        -0.7310 
     21 O         -55.6935  -32.3268    9.2578 O.2       13 UNK        -0.5035 
     22 N         -55.2812  -30.0743   12.1259 N.am      13 UNK        -0.4233 
     23 C         -56.1919  -29.0948   12.0440 C.2       13 UNK         0.4989 
     24 O         -56.7424  -28.7522   10.9970 O.2       13 UNK        -0.4996 
     25 CA        -56.5753  -28.3839   13.3546 C.3       12 UNK         0.0216 
     26 CB        -57.8089  -29.0521   13.9846 C.3       12 UNK        -0.1964 
     27 N         -55.4922  -28.3349   14.3430 N.am      12 UNK        -0.4276 
     28 C         -54.4124  -27.5500   14.2346 C.2       12 UNK         0.5020 
     29 O         -54.1978  -26.8099   13.2728 O.2       12 UNK        -0.5489 
     30 CA        -53.3977  -27.6219   15.3891 C.3       11 UNK         0.0294 
     31 CB        -52.3849  -28.7509   15.1431 C.3       11 UNK        -0.2019 
     32 N         -52.6715  -26.3607   15.5423 N.am      11 UNK        -0.4493 
     33 C         -53.2008  -25.2234   16.0129 C.2       11 UNK         0.4932 
     34 O         -54.3454  -25.1405   16.4640 O.2       11 UNK        -0.5029 
     35 CA        -52.2945  -23.9756   15.9694 C.3       10 UNK         0.0280 
     36 CB        -52.8430  -22.7940   16.7979 C.3       10 UNK        -0.1976 
     37 N         -50.9000  -24.2656   16.3250 N.am      10 UNK        -0.4242 
     38 C         -50.4403  -24.7438   17.4913 C.2       10 UNK         0.5072 
     39 O         -51.1483  -24.9604   18.4761 O.2       10 UNK        -0.5224 
     40 CA        -48.9327  -25.0429   17.5883 C.3       9 UNK         0.0343 
     41 CB        -48.6711  -26.5585   17.5632 C.3       9 UNK        -0.2003 
     42 N         -48.1178  -24.3815   16.5600 N.am      9 UNK        -0.4272 
     43 C         -47.7562  -23.0913   16.6235 C.2       9 UNK         0.4988 
     44 O         -48.1593  -22.3090   17.4850 O.2       9 UNK        -0.5108 
     45 CA        -46.7521  -22.5956   15.5765 C.3       8 UNK         0.0248 
     46 CB        -45.3748  -23.2515   15.7823 C.3       8 UNK        -0.2001 
     47 N         -47.2180  -22.8417   14.2112 N.am      8 UNK        -0.4140 
     48 C         -47.8095  -21.9159   13.4443 C.2       8 UNK         0.5028 
     49 O         -48.0950  -20.7817   13.8319 O.2       8 UNK        -0.5428 
     50 CA        -48.1078  -22.2991   11.9848 C.3       7 UNK         0.0264 
     51 CB        -46.8193  -22.2944   11.1462 C.3       7 UNK        -0.1988 
     52 N         -48.7851  -23.5865   11.8289 N.am      7 UNK        -0.4454 
     53 C         -50.0319  -23.8475   12.2485 C.2       7 UNK         0.5027 
     54 O         -50.7220  -23.0562   12.8906 O.2       7 UNK        -0.5083 
     55 CA        -50.6013  -25.2285   11.8736 C.3       6 UNK         0.0844 
     56 C56       -51.0721  -25.2637   10.3887 C.3       14 UNK        -0.0967 
     57 S57       -52.8921  -25.3518   10.2783 S.3       14 UNK        -0.2604 
     58 C58       -53.1624  -26.1261    8.6470 C.3       14 UNK         0.0134 
     59 N         -49.6258  -26.2746   12.1899 N.am      6 UNK        -0.4116 
     60 C         -49.4117  -26.7369   13.4299 C.2       5 UNK         0.5034 
     61 O         -50.0860  -26.4056   14.4020 O.2       5 UNK        -0.5045 
     62 CA        -48.2298  -27.6985   13.6458 C.3       5 UNK         0.0224 
     63 CB        -48.6928  -29.1603   13.5657 C.3       5 UNK        -0.1978 
     64 N         -47.1271  -27.4787   12.7093 N.am      5 UNK        -0.4737 
     65 C         -46.3756  -26.3694   12.6761 C.2       4 UNK         0.5027 
     66 O         -46.4965  -25.4405   13.4734 O.2       4 UNK        -0.5211 
     67 CA        -45.3713  -26.2505   11.5176 C.3       4 UNK         0.0297 
     68 CB        -44.0164  -26.8528   11.9189 C.3       4 UNK        -0.1993 
     69 N         -45.8449  -26.8751   10.2760 N.am      4 UNK        -0.4486 
     70 C         -46.9611  -26.5259    9.6220 C.2       3 UNK         0.4961 
     71 O         -47.7272  -25.6309    9.9923 O.2       3 UNK        -0.5105 
     72 CA        -47.3330  -27.3868    8.4090 C.3       3 UNK         0.0299 
     73 CB        -48.2897  -28.5127    8.8349 C.3       3 UNK        -0.1972 
     74 N         -47.9840  -26.5823    7.3798 N.am      3 UNK        -0.4305 
     75 C         -47.3489  -25.7812    6.5143 C.2       2 UNK         0.5006 
     76 O         -46.1237  -25.6490    6.4835 O.2       2 UNK        -0.5106 
     77 CA        -48.2317  -24.9969    5.5191 C.3       2 UNK         0.0296 
     78 CB        -47.4930  -24.6580    4.2065 C.3       2 UNK        -0.2002 
     79 N         -49.5244  -25.6389    5.2382 N.am      2 UNK        -0.4032 
     80 C         -49.7476  -26.8444    4.6903 C.2       1 UNK         0.5000 
     81 O         -48.8586  -27.5967    4.2861 O.2       1 UNK        -0.5238 
     82 H82       -54.1276  -24.1827    3.0828 H         1 UNK         0.0889 
     83 H83       -53.2113  -25.0686    1.8622 H         1 UNK         0.0889 
     84 H84       -52.5950  -23.5375    2.4883 H         1 UNK         0.0889 
     85 H85       -52.1075  -26.8251    2.7182 H         1 UNK         0.3028 
     86 H86       -51.6498  -27.0851    5.5723 H         1 UNK         0.0864 
     87 H87       -51.0089  -29.0176    3.2917 H         1 UNK         0.0720 
     88 H88       -50.8504  -29.3804    4.9918 H         1 UNK         0.0720 
     89 H89       -52.6030  -31.1876    5.6655 H         1 UNK         0.0814 
     90 H90       -54.2645  -30.7121    5.9134 H         1 UNK         0.0814 
     91 H91       -53.7416  -27.7142    6.5824 H         1 UNK         0.1469 
     92 H92       -51.9347  -27.9017   10.4704 H         1 UNK         0.1381 
     93 H93       -51.9726  -31.3634    7.9689 H         1 UNK         0.1206 
     94 H94       -50.8789  -31.4801   10.0706 H         1 UNK         0.0813 
     95 H95       -50.2305  -29.9740   10.6603 H         1 UNK         0.0813 
     96 H96       -53.1876  -32.2704   10.4904 H         1 UNK         0.0638 
     97 H97       -53.7529  -32.4194   12.1323 H         1 UNK         0.0638 
     98 H98       -54.5487  -30.1874   10.1971 H         1 UNK         0.0568 
     99 H99       -57.1679  -31.7055   11.9381 H         1 UNK         0.3450 
    100 H100      -57.6853  -32.7139   10.6103 H         1 UNK         0.3450 
    101 H101      -54.8685  -30.2835   13.0214 H         1 UNK         0.2987 
    102 H102      -56.8433  -27.3564   13.0978 H         1 UNK         0.0766 
    103 H103      -58.1547  -28.5014   14.8597 H         1 UNK         0.0798 
    104 H104      -57.6033  -30.0781   14.2925 H         1 UNK         0.0798 
    105 H105      -58.6393  -29.0842   13.2775 H         1 UNK         0.0798 
    106 H106      -55.5968  -28.9137   15.1645 H         1 UNK         0.3198 
    107 H107      -53.9317  -27.8225   16.3205 H         1 UNK         0.0843 
    108 H108      -51.8535  -28.6071   14.2017 H         1 UNK         0.0831 
    109 H109      -52.8791  -29.7217   15.0918 H         1 UNK         0.0831 
    110 H110      -51.6443  -28.8041   15.9413 H         1 UNK         0.0831 
    111 H111      -51.7284  -26.3334   15.1574 H         1 UNK         0.3133 
    112 H112      -52.2812  -23.6597   14.9264 H         1 UNK         0.0566 
    113 H113      -52.1907  -21.9237   16.7261 H         1 UNK         0.0814 
    114 H114      -53.8274  -22.4903   16.4398 H         1 UNK         0.0814 
    115 H115      -52.9467  -23.0505   17.8525 H         1 UNK         0.0814 
    116 H116      -50.2335  -24.1811   15.5701 H         1 UNK         0.3091 
    117 H117      -48.6025  -24.6767   18.5632 H         1 UNK         0.0702 
    118 H118      -49.1649  -27.0478   18.4038 H         1 UNK         0.0785 
    119 H119      -49.0518  -27.0262   16.6573 H         1 UNK         0.0785 
    120 H120      -47.6071  -26.7828   17.6401 H         1 UNK         0.0785 
    121 H121      -47.7497  -24.9582   15.8164 H         1 UNK         0.2998 
    122 H122      -46.6192  -21.5227   15.7328 H         1 UNK         0.0697 
    123 H123      -45.4078  -24.3334   15.6517 H         1 UNK         0.0825 
    124 H124      -44.9976  -23.0571   16.7872 H         1 UNK         0.0825 
    125 H125      -44.6415  -22.8553   15.0798 H         1 UNK         0.0825 
    126 H126      -47.0171  -23.7619   13.8203 H         1 UNK         0.3029 
    127 H127      -48.7723  -21.5336   11.5778 H         1 UNK         0.0897 
    128 H128      -46.1008  -23.0301   11.5063 H         1 UNK         0.0792 
    129 H129      -46.3328  -21.3188   11.1861 H         1 UNK         0.0792 
    130 H130      -47.0251  -22.5119   10.0977 H         1 UNK         0.0792 
    131 H131      -48.3042  -24.2918   11.2765 H         1 UNK         0.3086 
    132 H132      -51.4664  -25.3929   12.5213 H         1 UNK         0.0583 
    133 H133      -50.7424  -24.3913    9.8198 H         1 UNK         0.1020 
    134 H134      -50.6356  -26.1107    9.8607 H         1 UNK         0.1020 
    135 H135      -54.2105  -25.9725    8.3855 H         1 UNK         0.0694 
    136 H136      -52.5791  -25.5829    7.9018 H         1 UNK         0.0694 
    137 H137      -48.9746  -26.5207   11.4566 H         1 UNK         0.2989 
    138 H138      -47.8462  -27.5195   14.6521 H         1 UNK         0.1055 
    139 H139      -49.4878  -29.3587   14.2856 H         1 UNK         0.0806 
    140 H140      -47.8779  -29.8482   13.7918 H         1 UNK         0.0806 
    141 H141      -49.0780  -29.4089   12.5780 H         1 UNK         0.0806 
    142 H142      -46.9511  -28.1985   12.0238 H         1 UNK         0.3061 
    143 H143      -45.2245  -25.1884   11.3163 H         1 UNK         0.0734 
    144 H144      -43.2664  -26.6971   11.1432 H         1 UNK         0.0832 
    145 H145      -43.6380  -26.3860   12.8297 H         1 UNK         0.0832 
    146 H146      -44.0881  -27.9246   12.1085 H         1 UNK         0.0832 
    147 H147      -45.2827  -27.6289    9.9062 H         1 UNK         0.3156 
    148 H148      -46.4286  -27.8333    7.9900 H         1 UNK         0.0589 
    149 H149      -48.5681  -29.1396    7.9872 H         1 UNK         0.0808 
    150 H150      -47.8268  -29.1639    9.5774 H         1 UNK         0.0808 
    151 H151      -49.2078  -28.1192    9.2715 H         1 UNK         0.0808 
    152 H152      -48.9918  -26.5942    7.3669 H         1 UNK         0.3098 
    153 H153      -48.4676  -24.0537    6.0140 H         1 UNK         0.0720 
    154 H154      -46.6081  -24.0503    4.3995 H         1 UNK         0.0791 
    155 H155      -48.1304  -24.0914    3.5277 H         1 UNK         0.0791 
    156 H156      -47.1620  -25.5565    3.6849 H         1 UNK         0.0791 
    157 H157      -50.3499  -25.0893    5.4642 H         1 UNK         0.3028 
@<TRIPOS>BOND
     1    1    2 1    
     2    1   82 1    
     3    1   83 1    
     4    1   84 1    
     5    2    3 2    
     6    2    4 am   BACKBONE|DICT|INTERRES
     7    4    5 1    
     8    4   85 1    
     9    5    6 1    
    10    5   80 1    
    11    5   86 1    
    12    6    7 1    
    13    6   87 1    
    14    6   88 1    
    15    7    8 1    
    16    8    9 1    
    17    8   89 1    
    18    8   90 1    
    19    9   10 ar   
    20    9   14 ar   
    21   10   11 ar   
    22   10   91 1    
    23   11   12 ar   
    24   11   58 1    
    25   12   13 ar   
    26   12   92 1    
    27   13   14 ar   
    28   13   15 1    
    29   14   93 1    
    30   15   16 1    
    31   15   94 1    
    32   15   95 1    
    33   16   17 1    
    34   17   18 1    
    35   17   96 1    
    36   17   97 1    
    37   18   19 1    
    38   18   22 1    
    39   18   98 1    
    40   19   20 am   BACKBONE|DICT|INTERRES
    41   19   21 2    
    42   20   99 1    
    43   20  100 1    
    44   22   23 am   BACKBONE|DICT|INTERRES
    45   22  101 1    
    46   23   24 2    
    47   23   25 1    
    48   25   26 1    
    49   25   27 1    
    50   25  102 1    
    51   26  103 1    
    52   26  104 1    
    53   26  105 1    
    54   27   28 am   BACKBONE|DICT|INTERRES
    55   27  106 1    
    56   28   29 2    
    57   28   30 1    
    58   30   31 1    
    59   30   32 1    
    60   30  107 1    
    61   31  108 1    
    62   31  109 1    
    63   31  110 1    
    64   32   33 am   BACKBONE|DICT|INTERRES
    65   32  111 1    
    66   33   34 2    
    67   33   35 1    
    68   35   36 1    
    69   35   37 1    
    70   35  112 1    
    71   36  113 1    
    72   36  114 1    
    73   36  115 1    
    74   37   38 am   BACKBONE|DICT|INTERRES
    75   37  116 1    
    76   38   39 2    
    77   38   40 1    
    78   40   41 1    
    79   40   42 1    
    80   40  117 1    
    81   41  118 1    
    82   41  119 1    
    83   41  120 1    
    84   42   43 am   BACKBONE|DICT|INTERRES
    85   42  121 1    
    86   43   44 2    
    87   43   45 1    
    88   45   46 1    
    89   45   47 1    
    90   45  122 1    
    91   46  123 1    
    92   46  124 1    
    93   46  125 1    
    94   47   48 am   BACKBONE|DICT|INTERRES
    95   47  126 1    
    96   48   49 2    
    97   48   50 1    
    98   50   51 1    
    99   50   52 1    
   100   50  127 1    
   101   51  128 1    
   102   51  129 1    
   103   51  130 1    
   104   52   53 am   BACKBONE|DICT|INTERRES
   105   52  131 1    
   106   53   54 2    
   107   53   55 1    
   108   55   56 1    
   109   55   59 1    
   110   55  132 1    
   111   56   57 1    
   112   56  133 1    
   113   56  134 1    
   114   57   58 1    
   115   58  135 1    
   116   58  136 1    
   117   59   60 am   BACKBONE|DICT|INTERRES
   118   59  137 1    
   119   60   61 2    
   120   60   62 1    
   121   62   63 1    
   122   62   64 1    
   123   62  138 1    
   124   63  139 1    
   125   63  140 1    
   126   63  141 1    
   127   64   65 am   BACKBONE|DICT|INTERRES
   128   64  142 1    
   129   65   66 2    
   130   65   67 1    
   131   67   68 1    
   132   67   69 1    
   133   67  143 1    
   134   68  144 1    
   135   68  145 1    
   136   68  146 1    
   137   69   70 am   BACKBONE|DICT|INTERRES
   138   69  147 1    
   139   70   71 2    
   140   70   72 1    
   141   72   73 1    
   142   72   74 1    
   143   72  148 1    
   144   73  149 1    
   145   73  150 1    
   146   73  151 1    
   147   74   75 am   BACKBONE|DICT|INTERRES
   148   74  152 1    
   149   75   76 2    
   150   75   77 1    
   151   77   78 1    
   152   77   79 1    
   153   77  153 1    
   154   78  154 1    
   155   78  155 1    
   156   78  156 1    
   157   79   80 am   BACKBONE|DICT|INTERRES
   158   79  157 1    
   159   80   81 2    
@<TRIPOS>SUBSTRUCTURE
     1 UNK         1 GROUP             0       ****    0 ROOT    
