@<TRIPOS>MOLECULE
3R207
157   159    1
SMALL
USER_CHARGES


@<TRIPOS>ATOM
      1 CA        -45.9256  -28.7542    1.9771 C.3       0 UNK        -0.1975 
      2 C         -47.1584  -27.9848    2.4278 C.2       0 UNK         0.4852 
      3 O         -47.3571  -26.8463    2.0029 O.2       0 UNK        -0.5216 
      4 N         -47.9868  -28.5976    3.2857 N.am      1 UNK        -0.4461 
      5 CA        -49.2146  -28.0061    3.8369 C.3       1 UNK         0.0864 
      6 C6        -50.1288  -29.0966    4.4532 C.3       14 UNK        -0.0898 
      7 S7        -51.9019  -28.7103    4.2766 S.3       14 UNK        -0.2598 
      8 C8        -52.6574  -30.0066    5.3095 C.3       14 UNK         0.0286 
      9 C9        -52.5527  -29.6722    6.7895 C.ar      14 UNK        -0.0844 
     10 C10       -51.4953  -30.1718    7.5560 C.ar      14 UNK        -0.0881 
     11 C11       -51.3730  -29.8273    8.9045 C.ar      14 UNK        -0.0643 
     12 C12       -52.3386  -29.0052    9.4910 C.ar      14 UNK        -0.0930 
     13 C13       -53.4105  -28.5136    8.7434 C.ar      14 UNK        -0.0827 
     14 C14       -53.5106  -28.8493    7.3903 C.ar      14 UNK        -0.1249 
     15 C15       -54.4347  -27.5840    9.3791 C.3       14 UNK         0.0141 
     16 S16       -55.9232  -28.4783    9.9208 S.3       14 UNK        -0.2313 
     17 C17       -55.5136  -28.9131   11.6474 C.3       14 UNK        -0.0915 
     18 CA        -56.1144  -27.9080   12.6772 C.3       13 UNK         0.0968 
     19 C         -57.6394  -28.0971   12.9614 C.2       13 UNK         0.5732 
     20 N         -58.1436  -27.6759   14.1166 N.am      13 UNK        -0.7310 
     21 O         -58.3860  -28.6099   12.1314 O.2       13 UNK        -0.5035 
     22 N         -55.2961  -27.7936   13.8953 N.am      13 UNK        -0.4233 
     23 C         -55.0999  -28.7598   14.8070 C.2       13 UNK         0.4989 
     24 O         -55.5149  -29.9119   14.6766 O.2       13 UNK        -0.4996 
     25 CA        -54.3242  -28.3970   16.0913 C.3       12 UNK         0.0216 
     26 CB        -53.0893  -29.2944   16.2762 C.3       12 UNK        -0.1964 
     27 N         -53.9239  -26.9868   16.1577 N.am      12 UNK        -0.4276 
     28 C         -54.7510  -25.9904   16.5037 C.2       12 UNK         0.5020 
     29 O         -55.9220  -26.1620   16.8455 O.2       12 UNK        -0.5489 
     30 CA        -54.2001  -24.5599   16.4014 C.3       11 UNK         0.0294 
     31 CB        -53.4393  -24.1842   17.6817 C.3       11 UNK        -0.2019 
     32 N         -53.3379  -24.3530   15.2337 N.am      11 UNK        -0.4493 
     33 C         -53.7426  -24.4385   13.9562 C.2       11 UNK         0.4932 
     34 O         -54.8885  -24.7579   13.6373 O.2       11 UNK        -0.5029 
     35 CA        -52.7096  -24.1681   12.8415 C.3       10 UNK         0.0280 
     36 CB        -53.3255  -23.4444   11.6264 C.3       10 UNK        -0.1976 
     37 N         -51.4897  -23.4927   13.2944 N.am      10 UNK        -0.4242 
     38 C         -51.3685  -22.2637   13.8243 C.2       10 UNK         0.5072 
     39 O         -52.3008  -21.4665   13.9368 O.2       10 UNK        -0.5224 
     40 CA        -49.9621  -21.8779   14.3351 C.3       9 UNK         0.0343 
     41 CB        -50.0011  -20.8028   15.4429 C.3       9 UNK        -0.2003 
     42 N         -49.1740  -23.0483   14.7546 N.am      9 UNK        -0.4272 
     43 C         -49.4780  -23.8965   15.7472 C.2       9 UNK         0.4988 
     44 O         -50.4368  -23.7444   16.5048 O.2       9 UNK        -0.5108 
     45 CA        -48.5950  -25.1519   15.8602 C.3       8 UNK         0.0248 
     46 CB        -48.5628  -25.7067   17.2997 C.3       8 UNK        -0.2001 
     47 N         -48.9929  -26.2083   14.9167 N.am      8 UNK        -0.4140 
     48 C         -50.1984  -26.7921   14.7954 C.2       8 UNK         0.5028 
     49 O         -51.1938  -26.4728   15.4466 O.2       8 UNK        -0.5428 
     50 CA        -50.3231  -27.9656   13.8108 C.3       7 UNK         0.0264 
     51 CB        -51.6460  -27.9513   13.0242 C.3       7 UNK        -0.1988 
     52 N         -49.2006  -28.0563   12.8739 N.am      7 UNK        -0.4454 
     53 C         -48.3800  -29.1127   12.7841 C.2       7 UNK         0.5027 
     54 O         -48.4928  -30.1228   13.4808 O.2       7 UNK        -0.5083 
     55 CA        -47.2224  -29.0532   11.7664 C.3       6 UNK         0.0844 
     56 C56       -47.4847  -29.9480   10.5271 C.3       14 UNK        -0.0967 
     57 S57       -48.7196  -29.2933    9.3589 S.3       14 UNK        -0.2604 
     58 C58       -50.1809  -30.3146    9.7141 C.3       14 UNK         0.0134 
     59 N         -46.7774  -27.6933   11.4284 N.am      6 UNK        -0.4116 
     60 C         -46.1286  -26.8908   12.2876 C.2       5 UNK         0.5034 
     61 O         -45.9847  -27.1428   13.4843 O.2       5 UNK        -0.5045 
     62 CA        -45.5372  -25.5922   11.7268 C.3       5 UNK         0.0224 
     63 CB        -44.4371  -25.8787   10.6893 C.3       5 UNK        -0.1978 
     64 N         -46.5796  -24.7670   11.1273 N.am      5 UNK        -0.4737 
     65 C         -47.2691  -23.8270   11.7848 C.2       4 UNK         0.5027 
     66 O         -47.0731  -23.5292   12.9630 O.2       4 UNK        -0.5211 
     67 CA        -48.3890  -23.1059   11.0134 C.3       4 UNK         0.0297 
     68 CB        -47.8555  -21.8202   10.3645 C.3       4 UNK        -0.1993 
     69 N         -49.0349  -23.9360    9.9990 N.am      4 UNK        -0.4486 
     70 C         -49.6871  -25.0790   10.2500 C.2       3 UNK         0.4961 
     71 O         -49.8623  -25.5340   11.3813 O.2       3 UNK        -0.5105 
     72 CA        -50.1765  -25.8666    9.0242 C.3       3 UNK         0.0299 
     73 CB        -51.5832  -25.4003    8.6224 C.3       3 UNK        -0.1972 
     74 N         -49.2875  -25.7917    7.8548 N.am      3 UNK        -0.4305 
     75 C         -47.9697  -26.0426    7.8305 C.2       2 UNK         0.5006 
     76 O         -47.3081  -26.3400    8.8277 O.2       2 UNK        -0.5106 
     77 CA        -47.2750  -25.9226    6.4617 C.3       2 UNK         0.0296 
     78 CB        -45.7430  -26.0476    6.5691 C.3       2 UNK        -0.2002 
     79 N         -47.7633  -26.9191    5.5073 N.am      2 UNK        -0.4032 
     80 C         -48.9276  -26.8658    4.8427 C.2       1 UNK         0.5000 
     81 O         -49.7471  -25.9561    4.9907 O.2       1 UNK        -0.5238 
     82 H82       -45.0222  -28.2202    2.2712 H         1 UNK         0.0889 
     83 H83       -45.9234  -28.8563    0.8921 H         1 UNK         0.0889 
     84 H84       -45.8858  -29.7533    2.4110 H         1 UNK         0.0889 
     85 H85       -47.7762  -29.5389    3.5869 H         1 UNK         0.3028 
     86 H86       -49.7409  -27.5527    2.9937 H         1 UNK         0.0864 
     87 H87       -49.8813  -29.2698    5.5011 H         1 UNK         0.0720 
     88 H88       -49.9744  -30.0521    3.9493 H         1 UNK         0.0720 
     89 H89       -52.1923  -30.9701    5.0955 H         1 UNK         0.0814 
     90 H90       -53.7076  -30.1093    5.0322 H         1 UNK         0.0814 
     91 H91       -50.7480  -30.8057    7.0990 H         1 UNK         0.1469 
     92 H92       -52.2471  -28.7307   10.5265 H         1 UNK         0.1381 
     93 H93       -54.3284  -28.4584    6.8003 H         1 UNK         0.1206 
     94 H94       -54.7300  -26.8239    8.6544 H         1 UNK         0.0813 
     95 H95       -54.0008  -27.0424   10.2211 H         1 UNK         0.0813 
     96 H96       -55.8601  -29.9279   11.8489 H         1 UNK         0.0638 
     97 H97       -54.4277  -28.9502   11.7399 H         1 UNK         0.0638 
     98 H98       -56.0484  -26.9159   12.2298 H         1 UNK         0.0568 
     99 H99       -59.1282  -27.7935   14.2949 H         1 UNK         0.3450 
    100 H100      -57.5529  -27.2411   14.8088 H         1 UNK         0.3450 
    101 H101      -54.9665  -26.8581   14.0980 H         1 UNK         0.2987 
    102 H102      -54.9967  -28.5982   16.9280 H         1 UNK         0.0766 
    103 H103      -52.4157  -29.2375   15.4249 H         1 UNK         0.0798 
    104 H104      -53.3814  -30.3398   16.3844 H         1 UNK         0.0798 
    105 H105      -52.5273  -29.0218   17.1697 H         1 UNK         0.0798 
    106 H106      -52.9622  -26.7583   15.8996 H         1 UNK         0.3198 
    107 H107      -55.0528  -23.8849   16.3020 H         1 UNK         0.0843 
    108 H108      -53.0901  -23.1520   17.6482 H         1 UNK         0.0831 
    109 H109      -52.5699  -24.8254   17.8346 H         1 UNK         0.0831 
    110 H110      -54.0782  -24.2840   18.5600 H         1 UNK         0.0831 
    111 H111      -52.3599  -24.1652   15.4275 H         1 UNK         0.3133 
    112 H112      -52.3873  -25.1496   12.4981 H         1 UNK         0.0566 
    113 H113      -54.1239  -24.0383   11.1798 H         1 UNK         0.0814 
    114 H114      -53.7546  -22.4814   11.9040 H         1 UNK         0.0814 
    115 H115      -52.5808  -23.2690   10.8501 H         1 UNK         0.0814 
    116 H116      -50.6552  -24.0618   13.2446 H         1 UNK         0.3091 
    117 H117      -49.4357  -21.4376   13.4884 H         1 UNK         0.0702 
    118 H118      -48.9992  -20.5633   15.7988 H         1 UNK         0.0785 
    119 H119      -50.5954  -21.1209   16.3000 H         1 UNK         0.0785 
    120 H120      -50.4418  -19.8768   15.0718 H         1 UNK         0.0785 
    121 H121      -48.3550  -23.2524   14.1805 H         1 UNK         0.2998 
    122 H122      -47.5767  -24.8616   15.5955 H         1 UNK         0.0697 
    123 H123      -47.8754  -26.5482   17.3846 H         1 UNK         0.0825 
    124 H124      -48.2309  -24.9426   18.0035 H         1 UNK         0.0825 
    125 H125      -49.5467  -26.0439   17.6287 H         1 UNK         0.0825 
    126 H126      -48.2478  -26.5650   14.3333 H         1 UNK         0.3029 
    127 H127      -50.3438  -28.8444   14.4572 H         1 UNK         0.0897 
    128 H128      -51.8838  -28.9564   12.6790 H         1 UNK         0.0792 
    129 H129      -52.4898  -27.6226   13.6276 H         1 UNK         0.0792 
    130 H130      -51.5960  -27.2936   12.1586 H         1 UNK         0.0792 
    131 H131      -49.0793  -27.2661   12.2473 H         1 UNK         0.3086 
    132 H132      -46.3780  -29.5163   12.2825 H         1 UNK         0.0583 
    133 H133      -46.5519  -30.0673    9.9740 H         1 UNK         0.1020 
    134 H134      -47.7648  -30.9586   10.8314 H         1 UNK         0.1020 
    135 H135      -49.9668  -31.3568    9.4736 H         1 UNK         0.0694 
    136 H136      -50.4035  -30.2770   10.7813 H         1 UNK         0.0694 
    137 H137      -46.9173  -27.3894   10.4683 H         1 UNK         0.2989 
    138 H138      -45.0740  -25.0531   12.5569 H         1 UNK         0.1055 
    139 H139      -44.8187  -26.4058    9.8144 H         1 UNK         0.0806 
    140 H140      -43.6464  -26.4943   11.1204 H         1 UNK         0.0806 
    141 H141      -43.9739  -24.9548   10.3427 H         1 UNK         0.0806 
    142 H142      -46.8680  -25.0239   10.1877 H         1 UNK         0.3061 
    143 H143      -49.1606  -22.8310   11.7294 H         1 UNK         0.0734 
    144 H144      -48.6559  -21.2507    9.8917 H         1 UNK         0.0832 
    145 H145      -47.3950  -21.1700   11.1098 H         1 UNK         0.0832 
    146 H146      -47.0996  -22.0332    9.6074 H         1 UNK         0.0832 
    147 H147      -48.9365  -23.6468    9.0370 H         1 UNK         0.3156 
    148 H148      -50.2437  -26.9124    9.3204 H         1 UNK         0.0589 
    149 H149      -51.5837  -24.3687    8.2685 H         1 UNK         0.0808 
    150 H150      -51.9955  -26.0274    7.8314 H         1 UNK         0.0808 
    151 H151      -52.2675  -25.4556    9.4693 H         1 UNK         0.0808 
    152 H152      -49.7301  -25.6107    6.9583 H         1 UNK         0.3098 
    153 H153      -47.4982  -24.9274    6.0713 H         1 UNK         0.0720 
    154 H154      -45.3363  -25.2974    7.2487 H         1 UNK         0.0791 
    155 H155      -45.4422  -27.0257    6.9471 H         1 UNK         0.0791 
    156 H156      -45.2634  -25.8989    5.6014 H         1 UNK         0.0791 
    157 H157      -47.1630  -27.7136    5.3434 H         1 UNK         0.3028 
@<TRIPOS>BOND
     1    1    2 1    
     2    1   82 1    
     3    1   83 1    
     4    1   84 1    
     5    2    3 2    
     6    2    4 am   BACKBONE|DICT|INTERRES
     7    4    5 1    
     8    4   85 1    
     9    5    6 1    
    10    5   80 1    
    11    5   86 1    
    12    6    7 1    
    13    6   87 1    
    14    6   88 1    
    15    7    8 1    
    16    8    9 1    
    17    8   89 1    
    18    8   90 1    
    19    9   10 ar   
    20    9   14 ar   
    21   10   11 ar   
    22   10   91 1    
    23   11   12 ar   
    24   11   58 1    
    25   12   13 ar   
    26   12   92 1    
    27   13   14 ar   
    28   13   15 1    
    29   14   93 1    
    30   15   16 1    
    31   15   94 1    
    32   15   95 1    
    33   16   17 1    
    34   17   18 1    
    35   17   96 1    
    36   17   97 1    
    37   18   19 1    
    38   18   22 1    
    39   18   98 1    
    40   19   20 am   BACKBONE|DICT|INTERRES
    41   19   21 2    
    42   20   99 1    
    43   20  100 1    
    44   22   23 am   BACKBONE|DICT|INTERRES
    45   22  101 1    
    46   23   24 2    
    47   23   25 1    
    48   25   26 1    
    49   25   27 1    
    50   25  102 1    
    51   26  103 1    
    52   26  104 1    
    53   26  105 1    
    54   27   28 am   BACKBONE|DICT|INTERRES
    55   27  106 1    
    56   28   29 2    
    57   28   30 1    
    58   30   31 1    
    59   30   32 1    
    60   30  107 1    
    61   31  108 1    
    62   31  109 1    
    63   31  110 1    
    64   32   33 am   BACKBONE|DICT|INTERRES
    65   32  111 1    
    66   33   34 2    
    67   33   35 1    
    68   35   36 1    
    69   35   37 1    
    70   35  112 1    
    71   36  113 1    
    72   36  114 1    
    73   36  115 1    
    74   37   38 am   BACKBONE|DICT|INTERRES
    75   37  116 1    
    76   38   39 2    
    77   38   40 1    
    78   40   41 1    
    79   40   42 1    
    80   40  117 1    
    81   41  118 1    
    82   41  119 1    
    83   41  120 1    
    84   42   43 am   BACKBONE|DICT|INTERRES
    85   42  121 1    
    86   43   44 2    
    87   43   45 1    
    88   45   46 1    
    89   45   47 1    
    90   45  122 1    
    91   46  123 1    
    92   46  124 1    
    93   46  125 1    
    94   47   48 am   BACKBONE|DICT|INTERRES
    95   47  126 1    
    96   48   49 2    
    97   48   50 1    
    98   50   51 1    
    99   50   52 1    
   100   50  127 1    
   101   51  128 1    
   102   51  129 1    
   103   51  130 1    
   104   52   53 am   BACKBONE|DICT|INTERRES
   105   52  131 1    
   106   53   54 2    
   107   53   55 1    
   108   55   56 1    
   109   55   59 1    
   110   55  132 1    
   111   56   57 1    
   112   56  133 1    
   113   56  134 1    
   114   57   58 1    
   115   58  135 1    
   116   58  136 1    
   117   59   60 am   BACKBONE|DICT|INTERRES
   118   59  137 1    
   119   60   61 2    
   120   60   62 1    
   121   62   63 1    
   122   62   64 1    
   123   62  138 1    
   124   63  139 1    
   125   63  140 1    
   126   63  141 1    
   127   64   65 am   BACKBONE|DICT|INTERRES
   128   64  142 1    
   129   65   66 2    
   130   65   67 1    
   131   67   68 1    
   132   67   69 1    
   133   67  143 1    
   134   68  144 1    
   135   68  145 1    
   136   68  146 1    
   137   69   70 am   BACKBONE|DICT|INTERRES
   138   69  147 1    
   139   70   71 2    
   140   70   72 1    
   141   72   73 1    
   142   72   74 1    
   143   72  148 1    
   144   73  149 1    
   145   73  150 1    
   146   73  151 1    
   147   74   75 am   BACKBONE|DICT|INTERRES
   148   74  152 1    
   149   75   76 2    
   150   75   77 1    
   151   77   78 1    
   152   77   79 1    
   153   77  153 1    
   154   78  154 1    
   155   78  155 1    
   156   78  156 1    
   157   79   80 am   BACKBONE|DICT|INTERRES
   158   79  157 1    
   159   80   81 2    
@<TRIPOS>SUBSTRUCTURE
     1 UNK         1 GROUP             0       ****    0 ROOT    
