@<TRIPOS>MOLECULE
3R207
157   159    1
SMALL
USER_CHARGES


@<TRIPOS>ATOM
      1 CA        -52.0701  -31.0328    9.7958 C.3       0 UNK        -0.1975 
      2 C         -50.7368  -31.2602    9.1064 C.2       0 UNK         0.4852 
      3 O         -49.8701  -31.9435    9.6522 O.2       0 UNK        -0.5216 
      4 N         -50.5696  -30.6950    7.9029 N.am      1 UNK        -0.4461 
      5 CA        -49.3679  -30.8581    7.0750 C.3       1 UNK         0.0864 
      6 C6        -49.6943  -30.7247    5.5645 C.3       14 UNK        -0.0898 
      7 S7        -50.0262  -29.0304    4.9635 S.3       14 UNK        -0.2598 
      8 C8        -51.8472  -28.9566    4.9012 C.3       14 UNK         0.0286 
      9 C9        -52.4415  -28.3867    6.1822 C.ar      14 UNK        -0.0844 
     10 C10       -52.0616  -27.1127    6.6173 C.ar      14 UNK        -0.0881 
     11 C11       -52.6091  -26.5629    7.7780 C.ar      14 UNK        -0.0643 
     12 C12       -53.5550  -27.2900    8.5019 C.ar      14 UNK        -0.0930 
     13 C13       -53.9636  -28.5536    8.0663 C.ar      14 UNK        -0.0827 
     14 C14       -53.3996  -29.1026    6.9089 C.ar      14 UNK        -0.1249 
     15 C15       -55.0158  -29.3126    8.8581 C.3       14 UNK         0.0141 
     16 S16       -56.6847  -28.7166    8.4572 S.3       14 UNK        -0.2313 
     17 C17       -57.6577  -29.4578    9.8103 C.3       14 UNK        -0.0915 
     18 CA        -58.2067  -28.3857   10.7981 C.3       13 UNK         0.0968 
     19 C         -59.2750  -28.9558   11.7834 C.2       13 UNK         0.5732 
     20 N         -59.4200  -28.4114   12.9859 N.am      13 UNK        -0.7310 
     21 O         -60.0115  -29.8805   11.4464 O.2       13 UNK        -0.5035 
     22 N         -57.1423  -27.5810   11.4317 N.am      13 UNK        -0.4233 
     23 C         -56.2348  -28.0218   12.3133 C.2       13 UNK         0.4989 
     24 O         -56.1751  -29.1836   12.7239 O.2       13 UNK        -0.4996 
     25 CA        -55.2591  -26.9608   12.8554 C.3       12 UNK         0.0216 
     26 CB        -55.9585  -26.0459   13.8758 C.3       12 UNK        -0.1964 
     27 N         -54.0945  -27.5705   13.4988 N.am      12 UNK        -0.4276 
     28 C         -53.0620  -28.1181   12.8473 C.2       12 UNK         0.5020 
     29 O         -52.9392  -28.0903   11.6238 O.2       12 UNK        -0.5489 
     30 CA        -51.9785  -28.7737   13.7170 C.3       11 UNK         0.0294 
     31 CB        -50.6961  -29.1009   12.9272 C.3       11 UNK        -0.2019 
     32 N         -51.6276  -27.8836   14.8201 N.am      11 UNK        -0.4493 
     33 C         -51.7754  -28.1403   16.1242 C.2       11 UNK         0.4932 
     34 O         -52.3133  -29.1540   16.5722 O.2       11 UNK        -0.5029 
     35 CA        -51.1956  -27.0726   17.0723 C.3       10 UNK         0.0280 
     36 CB        -51.2006  -27.4977   18.5560 C.3       10 UNK        -0.1976 
     37 N         -49.8581  -26.6489   16.6380 N.am      10 UNK        -0.4242 
     38 C         -48.7550  -27.4082   16.5308 C.2       10 UNK         0.5072 
     39 O         -48.6750  -28.5739   16.9204 O.2       10 UNK        -0.5224 
     40 CA        -47.5328  -26.7774   15.8372 C.3       9 UNK         0.0343 
     41 CB        -47.4065  -27.3137   14.4002 C.3       9 UNK        -0.2003 
     42 N         -47.5702  -25.3152   15.7859 N.am      9 UNK        -0.4272 
     43 C         -47.4188  -24.4950   16.8344 C.2       9 UNK         0.4988 
     44 O         -47.1910  -24.8775   17.9822 O.2       9 UNK        -0.5108 
     45 CA        -47.5708  -22.9932   16.5499 C.3       8 UNK         0.0248 
     46 CB        -46.2564  -22.4054   16.0097 C.3       8 UNK        -0.2001 
     47 N         -48.6552  -22.7314   15.5997 N.am      8 UNK        -0.4140 
     48 C         -49.9559  -22.7103   15.9226 C.2       8 UNK         0.5028 
     49 O         -50.3798  -22.8721   17.0670 O.2       8 UNK        -0.5428 
     50 CA        -50.9589  -22.4795   14.7782 C.3       7 UNK         0.0264 
     51 CB        -51.1882  -20.9756   14.5575 C.3       7 UNK        -0.1988 
     52 N         -50.5539  -23.1008   13.5143 N.am      7 UNK        -0.4454 
     53 C         -50.5412  -24.4232   13.2949 C.2       7 UNK         0.5027 
     54 O         -50.8672  -25.2603   14.1371 O.2       7 UNK        -0.5083 
     55 CA        -50.0509  -24.8982   11.9145 C.3       6 UNK         0.0844 
     56 C56       -51.2105  -24.8942   10.8839 C.3       14 UNK        -0.0967 
     57 S57       -50.6392  -25.2736    9.1909 S.3       14 UNK        -0.2604 
     58 C58       -52.1796  -25.1807    8.2370 C.3       14 UNK         0.0134 
     59 N         -48.8752  -24.1837   11.4076 N.am      6 UNK        -0.4116 
     60 C         -47.7139  -23.9403   12.0265 C.2       5 UNK         0.5034 
     61 O         -47.5181  -24.1538   13.2219 O.2       5 UNK        -0.5045 
     62 CA        -46.5647  -23.3871   11.1628 C.3       5 UNK         0.0224 
     63 CB        -45.2971  -24.2444   11.3231 C.3       5 UNK        -0.1978 
     64 N         -46.9055  -23.3098    9.7353 N.am      5 UNK        -0.4737 
     65 C         -47.5307  -22.2688    9.1625 C.2       4 UNK         0.5027 
     66 O         -47.8739  -21.2675    9.7903 O.2       4 UNK        -0.5211 
     67 CA        -47.8549  -22.3436    7.6613 C.3       4 UNK         0.0297 
     68 CB        -46.9668  -21.3764    6.8597 C.3       4 UNK        -0.1993 
     69 N         -47.7088  -23.6947    7.1204 N.am      4 UNK        -0.4486 
     70 C         -48.5351  -24.2877    6.2554 C.2       3 UNK         0.4961 
     71 O         -49.5437  -23.7581    5.7879 O.2       3 UNK        -0.5105 
     72 CA        -48.1616  -25.7151    5.8193 C.3       3 UNK         0.0299 
     73 CB        -46.8471  -25.7334    5.0144 C.3       3 UNK        -0.1972 
     74 N         -48.1322  -26.7069    6.9031 N.am      3 UNK        -0.4305 
     75 C         -47.3438  -26.7677    7.9890 C.2       2 UNK         0.5006 
     76 O         -46.5192  -25.9003    8.2892 O.2       2 UNK        -0.5106 
     77 CA        -47.4890  -28.0041    8.9010 C.3       2 UNK         0.0296 
     78 CB        -47.8876  -27.6123   10.3330 C.3       2 UNK        -0.2002 
     79 N         -48.4566  -28.9850    8.4004 N.am      2 UNK        -0.4032 
     80 C         -48.1882  -29.9618    7.5211 C.2       1 UNK         0.5000 
     81 O         -47.0663  -30.1651    7.0535 O.2       1 UNK        -0.5238 
     82 H82       -52.0799  -31.4856   10.7869 H         1 UNK         0.0889 
     83 H83       -52.8762  -31.4781    9.2146 H         1 UNK         0.0889 
     84 H84       -52.2626  -29.9669    9.9080 H         1 UNK         0.0889 
     85 H85       -51.3072  -30.1271    7.5051 H         1 UNK         0.3028 
     86 H86       -49.0177  -31.8832    7.2175 H         1 UNK         0.0864 
     87 H87       -48.8516  -31.1046    4.9839 H         1 UNK         0.0720 
     88 H88       -50.5297  -31.3765    5.3049 H         1 UNK         0.0720 
     89 H89       -52.2590  -29.9405    4.6728 H         1 UNK         0.0814 
     90 H90       -52.1371  -28.3094    4.0723 H         1 UNK         0.0814 
     91 H91       -51.3346  -26.5453    6.0522 H         1 UNK         0.1469 
     92 H92       -53.9796  -26.8717    9.4042 H         1 UNK         0.1381 
     93 H93       -53.7193  -30.0783    6.5682 H         1 UNK         0.1206 
     94 H94       -54.8243  -29.1912    9.9251 H         1 UNK         0.0813 
     95 H95       -54.9614  -30.3820    8.6516 H         1 UNK         0.0813 
     96 H96       -57.0651  -30.2065   10.3383 H         1 UNK         0.0638 
     97 H97       -58.4781  -30.0023    9.3399 H         1 UNK         0.0638 
     98 H98       -58.7731  -27.6731   10.1978 H         1 UNK         0.0568 
     99 H99       -60.1204  -28.7784   13.6106 H         1 UNK         0.3450 
    100 H100      -58.8362  -27.6443   13.2757 H         1 UNK         0.3450 
    101 H101      -57.1304  -26.6061   11.1697 H         1 UNK         0.2987 
    102 H102      -54.9126  -26.3522   12.0169 H         1 UNK         0.0766 
    103 H103      -55.2766  -25.2852   14.2571 H         1 UNK         0.0798 
    104 H104      -56.3416  -26.6092   14.7280 H         1 UNK         0.0798 
    105 H105      -56.8021  -25.5210   13.4260 H         1 UNK         0.0798 
    106 H106      -54.1277  -27.6695   14.5028 H         1 UNK         0.3198 
    107 H107      -52.3954  -29.7096   14.0949 H         1 UNK         0.0843 
    108 H108      -50.8952  -29.8239   12.1374 H         1 UNK         0.0831 
    109 H109      -49.9314  -29.5321   13.5734 H         1 UNK         0.0831 
    110 H110      -50.2749  -28.2133   12.4563 H         1 UNK         0.0831 
    111 H111      -51.2571  -26.9708   14.5548 H         1 UNK         0.3133 
    112 H112      -51.8375  -26.1954   16.9782 H         1 UNK         0.0566 
    113 H113      -50.7826  -26.7179   19.1925 H         1 UNK         0.0814 
    114 H114      -52.2172  -27.6887   18.9017 H         1 UNK         0.0814 
    115 H115      -50.6267  -28.4099   18.7217 H         1 UNK         0.0814 
    116 H116      -49.8119  -25.7209   16.2388 H         1 UNK         0.3091 
    117 H117      -46.6447  -27.0756   16.3980 H         1 UNK         0.0702 
    118 H118      -46.5138  -26.9268   13.9081 H         1 UNK         0.0785 
    119 H119      -48.2685  -27.0378   13.7919 H         1 UNK         0.0785 
    120 H120      -47.3362  -28.4022   14.3916 H         1 UNK         0.0785 
    121 H121      -47.6815  -24.8983   14.8632 H         1 UNK         0.2998 
    122 H122      -47.8014  -22.4937   17.4935 H         1 UNK         0.0697 
    123 H123      -45.9633  -22.8615   15.0632 H         1 UNK         0.0825 
    124 H124      -45.4398  -22.5672   16.7147 H         1 UNK         0.0825 
    125 H125      -46.3387  -21.3300   15.8521 H         1 UNK         0.0825 
    126 H126      -48.3956  -22.6644   14.6245 H         1 UNK         0.3029 
    127 H127      -51.9085  -22.9258   15.0831 H         1 UNK         0.0897 
    128 H128      -51.9626  -20.7975   13.8111 H         1 UNK         0.0792 
    129 H129      -51.5130  -20.4916   15.4798 H         1 UNK         0.0792 
    130 H130      -50.2796  -20.4705   14.2273 H         1 UNK         0.0792 
    131 H131      -50.2590  -22.4841   12.7706 H         1 UNK         0.3086 
    132 H132      -49.7319  -25.9311   12.0503 H         1 UNK         0.0583 
    133 H133      -51.9742  -25.6214   11.1662 H         1 UNK         0.1020 
    134 H134      -51.7042  -23.9204   10.8605 H         1 UNK         0.1020 
    135 H135      -52.9679  -24.7062    8.8233 H         1 UNK         0.0694 
    136 H136      -52.0159  -24.5388    7.3698 H         1 UNK         0.0694 
    137 H137      -48.9155  -23.9679   10.4221 H         1 UNK         0.2989 
    138 H138      -46.3425  -22.3859   11.5388 H         1 UNK         0.1055 
    139 H139      -44.9898  -24.3048   12.3682 H         1 UNK         0.0806 
    140 H140      -44.4609  -23.8192   10.7678 H         1 UNK         0.0806 
    141 H141      -45.4481  -25.2640   10.9679 H         1 UNK         0.0806 
    142 H142      -46.6806  -24.1334    9.1870 H         1 UNK         0.3061 
    143 H143      -48.8944  -22.0240    7.5592 H         1 UNK         0.0734 
    144 H144      -47.0606  -20.3559    7.2337 H         1 UNK         0.0832 
    145 H145      -45.9136  -21.6527    6.9217 H         1 UNK         0.0832 
    146 H146      -47.2485  -21.3614    5.8067 H         1 UNK         0.0832 
    147 H147      -46.9439  -24.2643    7.4702 H         1 UNK         0.3156 
    148 H148      -48.9522  -26.0470    5.1446 H         1 UNK         0.0589 
    149 H149      -45.9849  -25.4608    5.6235 H         1 UNK         0.0808 
    150 H150      -46.6581  -26.7215    4.5945 H         1 UNK         0.0808 
    151 H151      -46.8908  -25.0310    4.1809 H         1 UNK         0.0808 
    152 H152      -48.7876  -27.4663    6.7846 H         1 UNK         0.3098 
    153 H153      -46.5020  -28.4688    8.9485 H         1 UNK         0.0720 
    154 H154      -47.2446  -26.8274   10.7307 H         1 UNK         0.0791 
    155 H155      -47.8100  -28.4637   11.0094 H         1 UNK         0.0791 
    156 H156      -48.9136  -27.2534   10.3735 H         1 UNK         0.0791 
    157 H157      -49.4062  -28.8973    8.7330 H         1 UNK         0.3028 
@<TRIPOS>BOND
     1    1    2 1    
     2    1   82 1    
     3    1   83 1    
     4    1   84 1    
     5    2    3 2    
     6    2    4 am   BACKBONE|DICT|INTERRES
     7    4    5 1    
     8    4   85 1    
     9    5    6 1    
    10    5   80 1    
    11    5   86 1    
    12    6    7 1    
    13    6   87 1    
    14    6   88 1    
    15    7    8 1    
    16    8    9 1    
    17    8   89 1    
    18    8   90 1    
    19    9   10 ar   
    20    9   14 ar   
    21   10   11 ar   
    22   10   91 1    
    23   11   12 ar   
    24   11   58 1    
    25   12   13 ar   
    26   12   92 1    
    27   13   14 ar   
    28   13   15 1    
    29   14   93 1    
    30   15   16 1    
    31   15   94 1    
    32   15   95 1    
    33   16   17 1    
    34   17   18 1    
    35   17   96 1    
    36   17   97 1    
    37   18   19 1    
    38   18   22 1    
    39   18   98 1    
    40   19   20 am   BACKBONE|DICT|INTERRES
    41   19   21 2    
    42   20   99 1    
    43   20  100 1    
    44   22   23 am   BACKBONE|DICT|INTERRES
    45   22  101 1    
    46   23   24 2    
    47   23   25 1    
    48   25   26 1    
    49   25   27 1    
    50   25  102 1    
    51   26  103 1    
    52   26  104 1    
    53   26  105 1    
    54   27   28 am   BACKBONE|DICT|INTERRES
    55   27  106 1    
    56   28   29 2    
    57   28   30 1    
    58   30   31 1    
    59   30   32 1    
    60   30  107 1    
    61   31  108 1    
    62   31  109 1    
    63   31  110 1    
    64   32   33 am   BACKBONE|DICT|INTERRES
    65   32  111 1    
    66   33   34 2    
    67   33   35 1    
    68   35   36 1    
    69   35   37 1    
    70   35  112 1    
    71   36  113 1    
    72   36  114 1    
    73   36  115 1    
    74   37   38 am   BACKBONE|DICT|INTERRES
    75   37  116 1    
    76   38   39 2    
    77   38   40 1    
    78   40   41 1    
    79   40   42 1    
    80   40  117 1    
    81   41  118 1    
    82   41  119 1    
    83   41  120 1    
    84   42   43 am   BACKBONE|DICT|INTERRES
    85   42  121 1    
    86   43   44 2    
    87   43   45 1    
    88   45   46 1    
    89   45   47 1    
    90   45  122 1    
    91   46  123 1    
    92   46  124 1    
    93   46  125 1    
    94   47   48 am   BACKBONE|DICT|INTERRES
    95   47  126 1    
    96   48   49 2    
    97   48   50 1    
    98   50   51 1    
    99   50   52 1    
   100   50  127 1    
   101   51  128 1    
   102   51  129 1    
   103   51  130 1    
   104   52   53 am   BACKBONE|DICT|INTERRES
   105   52  131 1    
   106   53   54 2    
   107   53   55 1    
   108   55   56 1    
   109   55   59 1    
   110   55  132 1    
   111   56   57 1    
   112   56  133 1    
   113   56  134 1    
   114   57   58 1    
   115   58  135 1    
   116   58  136 1    
   117   59   60 am   BACKBONE|DICT|INTERRES
   118   59  137 1    
   119   60   61 2    
   120   60   62 1    
   121   62   63 1    
   122   62   64 1    
   123   62  138 1    
   124   63  139 1    
   125   63  140 1    
   126   63  141 1    
   127   64   65 am   BACKBONE|DICT|INTERRES
   128   64  142 1    
   129   65   66 2    
   130   65   67 1    
   131   67   68 1    
   132   67   69 1    
   133   67  143 1    
   134   68  144 1    
   135   68  145 1    
   136   68  146 1    
   137   69   70 am   BACKBONE|DICT|INTERRES
   138   69  147 1    
   139   70   71 2    
   140   70   72 1    
   141   72   73 1    
   142   72   74 1    
   143   72  148 1    
   144   73  149 1    
   145   73  150 1    
   146   73  151 1    
   147   74   75 am   BACKBONE|DICT|INTERRES
   148   74  152 1    
   149   75   76 2    
   150   75   77 1    
   151   77   78 1    
   152   77   79 1    
   153   77  153 1    
   154   78  154 1    
   155   78  155 1    
   156   78  156 1    
   157   79   80 am   BACKBONE|DICT|INTERRES
   158   79  157 1    
   159   80   81 2    
@<TRIPOS>SUBSTRUCTURE
     1 UNK         1 GROUP             0       ****    0 ROOT    
