@<TRIPOS>MOLECULE
3R207
157   159    1
SMALL
USER_CHARGES


@<TRIPOS>ATOM
      1 CA        -51.9330  -27.2896    4.9882 C.3       0 UNK        -0.1975 
      2 C         -50.8366  -26.2421    5.1057 C.2       0 UNK         0.4852 
      3 O         -49.9412  -26.1948    4.2610 O.2       0 UNK        -0.5216 
      4 N         -50.8853  -25.4136    6.1573 N.am      1 UNK        -0.4461 
      5 CA        -49.9105  -24.3604    6.4580 C.3       1 UNK         0.0864 
      6 C6        -50.3519  -23.5125    7.6719 C.3       14 UNK        -0.0898 
      7 S7        -51.7508  -22.3971    7.2971 S.3       14 UNK        -0.2598 
      8 C8        -53.2401  -23.4523    7.4374 C.3       14 UNK         0.0286 
      9 C9        -53.2779  -24.3342    8.6819 C.ar      14 UNK        -0.0844 
     10 C10       -52.9351  -23.8199    9.9371 C.ar      14 UNK        -0.0881 
     11 C11       -52.9355  -24.6406   11.0677 C.ar      14 UNK        -0.0643 
     12 C12       -53.3340  -25.9741   10.9468 C.ar      14 UNK        -0.0930 
     13 C13       -53.6840  -26.5001    9.7009 C.ar      14 UNK        -0.0827 
     14 C14       -53.6582  -25.6761    8.5724 C.ar      14 UNK        -0.1249 
     15 C15       -54.0598  -27.9668    9.5829 C.3       14 UNK         0.0141 
     16 S16       -55.7287  -28.2663   10.2320 S.3       14 UNK        -0.2313 
     17 C17       -55.6929  -30.0740   10.4622 C.3       14 UNK        -0.0915 
     18 CA        -55.5482  -30.4669   11.9621 C.3       13 UNK         0.0968 
     19 C         -55.8839  -31.9652   12.2463 C.2       13 UNK         0.5732 
     20 N         -55.3120  -32.5930   13.2689 N.am      13 UNK        -0.7310 
     21 O         -56.7025  -32.5663   11.5540 O.2       13 UNK        -0.5035 
     22 N         -54.2881  -30.0050   12.5707 N.am      13 UNK        -0.4233 
     23 C         -53.0575  -30.4708   12.3010 C.2       13 UNK         0.4989 
     24 O         -52.8013  -31.2341   11.3697 O.2       13 UNK        -0.4996 
     25 CA        -51.9127  -30.0520   13.2490 C.3       12 UNK         0.0216 
     26 CB        -51.0344  -28.9685   12.6019 C.3       12 UNK        -0.1964 
     27 N         -52.3643  -29.5836   14.5633 N.am      12 UNK        -0.4276 
     28 C         -53.0817  -30.2967   15.4447 C.2       12 UNK         0.5020 
     29 O         -53.3683  -31.4849   15.2899 O.2       12 UNK        -0.5489 
     30 CA        -53.6285  -29.5450   16.6727 C.3       11 UNK         0.0294 
     31 CB        -52.7402  -29.8086   17.8988 C.3       11 UNK        -0.2019 
     32 N         -53.7718  -28.0948   16.4900 N.am      11 UNK        -0.4493 
     33 C         -54.4823  -27.4649   15.5440 C.2       11 UNK         0.4932 
     34 O         -55.1165  -28.0536   14.6680 O.2       11 UNK        -0.5029 
     35 CA        -54.4413  -25.9236   15.5301 C.3       10 UNK         0.0280 
     36 CB        -55.6129  -25.3335   16.3373 C.3       10 UNK        -0.1976 
     37 N         -53.1532  -25.3303   15.9330 N.am      10 UNK        -0.4242 
     38 C         -52.5489  -25.3501   17.1319 C.2       10 UNK         0.5072 
     39 O         -53.0147  -25.9087   18.1253 O.2       10 UNK        -0.5224 
     40 CA        -51.1613  -24.6968   17.2322 C.3       9 UNK         0.0343 
     41 CB        -50.0660  -25.7716   17.1266 C.3       9 UNK        -0.2003 
     42 N         -50.9219  -23.6794   16.2078 N.am      9 UNK        -0.4272 
     43 C         -51.3567  -22.4129   16.2587 C.2       9 UNK         0.4988 
     44 O         -52.0551  -21.9698   17.1717 O.2       9 UNK        -0.5108 
     45 CA        -50.9436  -21.4957   15.0859 C.3       8 UNK         0.0248 
     46 CB        -50.9341  -20.0008   15.4716 C.3       8 UNK        -0.2001 
     47 N         -49.6734  -21.8866   14.4512 N.am      8 UNK        -0.4140 
     48 C         -48.4547  -21.9247   15.0164 C.2       8 UNK         0.5028 
     49 O         -48.2192  -21.5815   16.1758 O.2       8 UNK        -0.5428 
     50 CA        -47.3317  -22.5077   14.1418 C.3       7 UNK         0.0264 
     51 CB        -46.0056  -22.6943   14.9041 C.3       7 UNK        -0.1988 
     52 N         -47.7712  -23.7995   13.6124 N.am      7 UNK        -0.4454 
     53 C         -47.8067  -24.1386   12.3197 C.2       7 UNK         0.5027 
     54 O         -47.3832  -23.4281   11.4050 O.2       7 UNK        -0.5083 
     55 CA        -48.5012  -25.4736   11.9941 C.3       6 UNK         0.0844 
     56 C56       -49.9877  -25.2563   11.6280 C.3       14 UNK        -0.0967 
     57 S57       -51.0642  -25.0628   13.0933 S.3       14 UNK        -0.2604 
     58 C58       -52.4524  -24.0948   12.4048 C.3       14 UNK         0.0134 
     59 N         -47.7961  -26.1736   10.9230 N.am      6 UNK        -0.4116 
     60 C         -46.6818  -26.8975   11.0909 C.2       5 UNK         0.5034 
     61 O         -46.1087  -27.0324   12.1739 O.2       5 UNK        -0.5045 
     62 CA        -46.1353  -27.6005    9.8334 C.3       5 UNK         0.0224 
     63 CB        -45.1434  -28.7395   10.1512 C.3       5 UNK        -0.1978 
     64 N         -47.2088  -28.0635    8.9457 N.am      5 UNK        -0.4737 
     65 C         -48.1578  -28.9801    9.1947 C.2       4 UNK         0.5027 
     66 O         -48.2213  -29.6499   10.2246 O.2       4 UNK        -0.5211 
     67 CA        -49.2336  -29.1689    8.1090 C.3       4 UNK         0.0297 
     68 CB        -50.5051  -28.3773    8.4634 C.3       4 UNK        -0.1993 
     69 N         -48.7569  -28.7516    6.7878 N.am      4 UNK        -0.4486 
     70 C         -48.0018  -29.5099    5.9795 C.2       3 UNK         0.4961 
     71 O         -47.7243  -30.6877    6.2061 O.2       3 UNK        -0.5105 
     72 CA        -47.4445  -28.8388    4.7114 C.3       3 UNK         0.0299 
     73 CB        -48.3568  -29.1135    3.5052 C.3       3 UNK        -0.1972 
     74 N         -47.2569  -27.3931    4.8769 N.am      3 UNK        -0.4305 
     75 C         -46.2455  -26.8473    5.5728 C.2       2 UNK         0.5006 
     76 O         -45.3421  -27.5044    6.0893 O.2       2 UNK        -0.5106 
     77 CA        -46.2458  -25.3187    5.7615 C.3       2 UNK         0.0296 
     78 CB        -45.4014  -24.6423    4.6696 C.3       2 UNK        -0.2002 
     79 N         -47.5855  -24.7271    5.7769 N.am      2 UNK        -0.4032 
     80 C         -48.5219  -24.9803    6.7009 C.2       1 UNK         0.5000 
     81 O         -48.3454  -25.7132    7.6780 O.2       1 UNK        -0.5238 
     82 H82       -52.4423  -27.1912    4.0300 H         1 UNK         0.0889 
     83 H83       -52.6768  -27.1943    5.7784 H         1 UNK         0.0889 
     84 H84       -51.5044  -28.2898    5.0449 H         1 UNK         0.0889 
     85 H85       -51.6230  -25.5151    6.8384 H         1 UNK         0.3028 
     86 H86       -49.8484  -23.7055    5.5861 H         1 UNK         0.0864 
     87 H87       -50.5802  -24.1483    8.5275 H         1 UNK         0.0720 
     88 H88       -49.5331  -22.8687    7.9998 H         1 UNK         0.0720 
     89 H89       -53.3220  -24.0561    6.5328 H         1 UNK         0.0814 
     90 H90       -54.1195  -22.8073    7.4457 H         1 UNK         0.0814 
     91 H91       -52.6331  -22.7853   10.0251 H         1 UNK         0.1469 
     92 H92       -53.3484  -26.6102   11.8205 H         1 UNK         0.1381 
     93 H93       -53.9372  -26.0823    7.6100 H         1 UNK         0.1206 
     94 H94       -54.0103  -28.3022    8.5459 H         1 UNK         0.0813 
     95 H95       -53.3337  -28.5636   10.1341 H         1 UNK         0.0813 
     96 H96       -56.6313  -30.4530   10.0544 H         1 UNK         0.0638 
     97 H97       -54.9022  -30.5204    9.8577 H         1 UNK         0.0638 
     98 H98       -56.3273  -29.9286   12.5027 H         1 UNK         0.0568 
     99 H99       -54.6442  -32.1237   13.8715 H         1 UNK         0.3450 
    100 H100      -55.5499  -33.5559   13.4442 H         1 UNK         0.3450 
    101 H101      -54.4090  -29.3664   13.3503 H         1 UNK         0.2987 
    102 H102      -51.2952  -30.9369   13.4159 H         1 UNK         0.0766 
    103 H103      -50.6087  -29.3272   11.6648 H         1 UNK         0.0798 
    104 H104      -50.1979  -28.6920   13.2440 H         1 UNK         0.0798 
    105 H105      -51.6009  -28.0650   12.3804 H         1 UNK         0.0798 
    106 H106      -52.1845  -28.6159   14.7856 H         1 UNK         0.3198 
    107 H107      -54.6242  -29.9449   16.8752 H         1 UNK         0.0843 
    108 H108      -51.7383  -29.3980   17.7669 H         1 UNK         0.0831 
    109 H109      -52.6333  -30.8789   18.0817 H         1 UNK         0.0831 
    110 H110      -53.1669  -29.3690   18.8006 H         1 UNK         0.0831 
    111 H111      -53.3419  -27.5002   17.1950 H         1 UNK         0.3133 
    112 H112      -54.5850  -25.6277   14.4899 H         1 UNK         0.0566 
    113 H113      -55.6304  -24.2456   16.2725 H         1 UNK         0.0814 
    114 H114      -56.5683  -25.6963   15.9559 H         1 UNK         0.0814 
    115 H115      -55.5628  -25.6060   17.3919 H         1 UNK         0.0814 
    116 H116      -52.6379  -24.8905   15.1837 H         1 UNK         0.3091 
    117 H117      -51.0876  -24.2280   18.2160 H         1 UNK         0.0702 
    118 H118      -50.1927  -26.5353   17.8955 H         1 UNK         0.0785 
    119 H119      -49.0740  -25.3405   17.2633 H         1 UNK         0.0785 
    120 H120      -50.0837  -26.2771   16.1599 H         1 UNK         0.0785 
    121 H121      -50.3758  -23.9603   15.4078 H         1 UNK         0.2998 
    122 H122      -51.7137  -21.6272   14.3249 H         1 UNK         0.0697 
    123 H123      -50.2374  -19.7964   16.2851 H         1 UNK         0.0825 
    124 H124      -51.9212  -19.6747   15.8017 H         1 UNK         0.0825 
    125 H125      -50.6549  -19.3738   14.6250 H         1 UNK         0.0825 
    126 H126      -49.7466  -22.1981   13.4926 H         1 UNK         0.3029 
    127 H127      -47.1627  -21.7943   13.3320 H         1 UNK         0.0897 
    128 H128      -45.2288  -23.0941   14.2520 H         1 UNK         0.0792 
    129 H129      -46.1170  -23.3755   15.7486 H         1 UNK         0.0792 
    130 H130      -45.6416  -21.7433   15.2953 H         1 UNK         0.0792 
    131 H131      -48.1372  -24.4527   14.2908 H         1 UNK         0.3086 
    132 H132      -48.4600  -26.1150   12.8779 H         1 UNK         0.0583 
    133 H133      -50.1069  -24.4050   10.9544 H         1 UNK         0.1020 
    134 H134      -50.3646  -26.1206   11.0781 H         1 UNK         0.1020 
    135 H135      -53.2822  -24.0896   13.1113 H         1 UNK         0.0694 
    136 H136      -52.1306  -23.0578   12.3003 H         1 UNK         0.0694 
    137 H137      -48.1568  -26.0599    9.9842 H         1 UNK         0.2989 
    138 H138      -45.5898  -26.8365    9.2768 H         1 UNK         0.1055 
    139 H139      -45.5983  -29.5146   10.7686 H         1 UNK         0.0806 
    140 H140      -44.2755  -28.3617   10.6931 H         1 UNK         0.0806 
    141 H141      -44.7755  -29.2088    9.2387 H         1 UNK         0.0806 
    142 H142      -47.3173  -27.5216    8.0972 H         1 UNK         0.3061 
    143 H143      -49.4921  -30.2297    8.0777 H         1 UNK         0.0734 
    144 H144      -51.2896  -28.5334    7.7237 H         1 UNK         0.0832 
    145 H145      -50.9058  -28.6991    9.4241 H         1 UNK         0.0832 
    146 H146      -50.3168  -27.3059    8.5359 H         1 UNK         0.0832 
    147 H147      -48.9048  -27.7846    6.5382 H         1 UNK         0.3156 
    148 H148      -46.4719  -29.2889    4.5005 H         1 UNK         0.0589 
    149 H149      -49.3649  -28.7293    3.6588 H         1 UNK         0.0808 
    150 H150      -47.9604  -28.6617    2.5958 H         1 UNK         0.0808 
    151 H151      -48.4445  -30.1853    3.3222 H         1 UNK         0.0808 
    152 H152      -47.9825  -26.7932    4.4953 H         1 UNK         0.3098 
    153 H153      -45.7827  -25.1106    6.7286 H         1 UNK         0.0720 
    154 H154      -44.3879  -25.0459    4.6544 H         1 UNK         0.0791 
    155 H155      -45.3172  -23.5688    4.8401 H         1 UNK         0.0791 
    156 H156      -45.8272  -24.7936    3.6768 H         1 UNK         0.0791 
    157 H157      -47.8271  -24.1409    4.9904 H         1 UNK         0.3028 
@<TRIPOS>BOND
     1    1    2 1    
     2    1   82 1    
     3    1   83 1    
     4    1   84 1    
     5    2    3 2    
     6    2    4 am   BACKBONE|DICT|INTERRES
     7    4    5 1    
     8    4   85 1    
     9    5    6 1    
    10    5   80 1    
    11    5   86 1    
    12    6    7 1    
    13    6   87 1    
    14    6   88 1    
    15    7    8 1    
    16    8    9 1    
    17    8   89 1    
    18    8   90 1    
    19    9   10 ar   
    20    9   14 ar   
    21   10   11 ar   
    22   10   91 1    
    23   11   12 ar   
    24   11   58 1    
    25   12   13 ar   
    26   12   92 1    
    27   13   14 ar   
    28   13   15 1    
    29   14   93 1    
    30   15   16 1    
    31   15   94 1    
    32   15   95 1    
    33   16   17 1    
    34   17   18 1    
    35   17   96 1    
    36   17   97 1    
    37   18   19 1    
    38   18   22 1    
    39   18   98 1    
    40   19   20 am   BACKBONE|DICT|INTERRES
    41   19   21 2    
    42   20   99 1    
    43   20  100 1    
    44   22   23 am   BACKBONE|DICT|INTERRES
    45   22  101 1    
    46   23   24 2    
    47   23   25 1    
    48   25   26 1    
    49   25   27 1    
    50   25  102 1    
    51   26  103 1    
    52   26  104 1    
    53   26  105 1    
    54   27   28 am   BACKBONE|DICT|INTERRES
    55   27  106 1    
    56   28   29 2    
    57   28   30 1    
    58   30   31 1    
    59   30   32 1    
    60   30  107 1    
    61   31  108 1    
    62   31  109 1    
    63   31  110 1    
    64   32   33 am   BACKBONE|DICT|INTERRES
    65   32  111 1    
    66   33   34 2    
    67   33   35 1    
    68   35   36 1    
    69   35   37 1    
    70   35  112 1    
    71   36  113 1    
    72   36  114 1    
    73   36  115 1    
    74   37   38 am   BACKBONE|DICT|INTERRES
    75   37  116 1    
    76   38   39 2    
    77   38   40 1    
    78   40   41 1    
    79   40   42 1    
    80   40  117 1    
    81   41  118 1    
    82   41  119 1    
    83   41  120 1    
    84   42   43 am   BACKBONE|DICT|INTERRES
    85   42  121 1    
    86   43   44 2    
    87   43   45 1    
    88   45   46 1    
    89   45   47 1    
    90   45  122 1    
    91   46  123 1    
    92   46  124 1    
    93   46  125 1    
    94   47   48 am   BACKBONE|DICT|INTERRES
    95   47  126 1    
    96   48   49 2    
    97   48   50 1    
    98   50   51 1    
    99   50   52 1    
   100   50  127 1    
   101   51  128 1    
   102   51  129 1    
   103   51  130 1    
   104   52   53 am   BACKBONE|DICT|INTERRES
   105   52  131 1    
   106   53   54 2    
   107   53   55 1    
   108   55   56 1    
   109   55   59 1    
   110   55  132 1    
   111   56   57 1    
   112   56  133 1    
   113   56  134 1    
   114   57   58 1    
   115   58  135 1    
   116   58  136 1    
   117   59   60 am   BACKBONE|DICT|INTERRES
   118   59  137 1    
   119   60   61 2    
   120   60   62 1    
   121   62   63 1    
   122   62   64 1    
   123   62  138 1    
   124   63  139 1    
   125   63  140 1    
   126   63  141 1    
   127   64   65 am   BACKBONE|DICT|INTERRES
   128   64  142 1    
   129   65   66 2    
   130   65   67 1    
   131   67   68 1    
   132   67   69 1    
   133   67  143 1    
   134   68  144 1    
   135   68  145 1    
   136   68  146 1    
   137   69   70 am   BACKBONE|DICT|INTERRES
   138   69  147 1    
   139   70   71 2    
   140   70   72 1    
   141   72   73 1    
   142   72   74 1    
   143   72  148 1    
   144   73  149 1    
   145   73  150 1    
   146   73  151 1    
   147   74   75 am   BACKBONE|DICT|INTERRES
   148   74  152 1    
   149   75   76 2    
   150   75   77 1    
   151   77   78 1    
   152   77   79 1    
   153   77  153 1    
   154   78  154 1    
   155   78  155 1    
   156   78  156 1    
   157   79   80 am   BACKBONE|DICT|INTERRES
   158   79  157 1    
   159   80   81 2    
@<TRIPOS>SUBSTRUCTURE
     1 UNK         1 GROUP             0       ****    0 ROOT    
