@<TRIPOS>MOLECULE
3R207
157   159    1
SMALL
USER_CHARGES


@<TRIPOS>ATOM
      1 CA        -53.0768  -26.7135    2.0201 C.3       0 UNK        -0.1975 
      2 C         -52.0918  -27.3106    3.0149 C.2       0 UNK         0.4852 
      3 O         -51.1584  -28.0017    2.6033 O.2       0 UNK        -0.5216 
      4 N         -52.3018  -27.0470    4.3130 N.am      1 UNK        -0.4461 
      5 CA        -51.4732  -27.4923    5.4452 C.3       1 UNK         0.0864 
      6 C6        -51.4494  -29.0412    5.6266 C.3       14 UNK        -0.0898 
      7 S7        -53.1346  -29.7263    5.8199 S.3       14 UNK        -0.2598 
      8 C8        -53.0490  -30.5893    7.4299 C.3       14 UNK         0.0286 
      9 C9        -52.5975  -29.7248    8.6066 C.ar      14 UNK        -0.0844 
     10 C10       -52.9228  -28.3662    8.6948 C.ar      14 UNK        -0.0881 
     11 C11       -52.4616  -27.5914    9.7620 C.ar      14 UNK        -0.0643 
     12 C12       -51.7121  -28.1932   10.7768 C.ar      14 UNK        -0.0930 
     13 C13       -51.3984  -29.5522   10.7149 C.ar      14 UNK        -0.0827 
     14 C14       -51.8390  -30.3089    9.6257 C.ar      14 UNK        -0.1249 
     15 C15       -50.5396  -30.1961   11.7931 C.3       14 UNK         0.0141 
     16 S16       -51.4663  -31.3979   12.7964 S.3       14 UNK        -0.2313 
     17 C17       -52.3396  -30.3305   13.9885 C.3       14 UNK        -0.0915 
     18 CA        -53.8790  -30.4851   13.8899 C.3       13 UNK         0.0968 
     19 C         -54.6026  -29.9987   15.1812 C.2       13 UNK         0.5732 
     20 N         -55.6228  -29.1514   15.1156 N.am      13 UNK        -0.7310 
     21 O         -54.2449  -30.4214   16.2780 O.2       13 UNK        -0.5035 
     22 N         -54.3911  -29.8719   12.6580 N.am      13 UNK        -0.4233 
     23 C         -55.4311  -30.3275   11.9501 C.2       13 UNK         0.4989 
     24 O         -56.0172  -31.3829   12.1989 O.2       13 UNK        -0.4996 
     25 CA        -55.9056  -29.4459   10.7741 C.3       12 UNK         0.0216 
     26 CB        -57.3608  -29.7440   10.3544 C.3       12 UNK        -0.1964 
     27 N         -55.7241  -28.0049   11.0051 N.am      12 UNK        -0.4276 
     28 C         -56.2109  -27.2838   12.0259 C.2       12 UNK         0.5020 
     29 O         -56.9169  -27.7417   12.9269 O.2       12 UNK        -0.5489 
     30 CA        -55.8078  -25.7999   12.0696 C.3       11 UNK         0.0294 
     31 CB        -57.0457  -24.8997   11.9239 C.3       11 UNK        -0.2019 
     32 N         -55.0971  -25.4480   13.3038 N.am      11 UNK        -0.4493 
     33 C         -54.0066  -26.0557   13.7937 C.2       11 UNK         0.4932 
     34 O         -53.4244  -26.9925   13.2388 O.2       11 UNK        -0.5029 
     35 CA        -53.4876  -25.5266   15.1374 C.3       10 UNK         0.0280 
     36 CB        -54.5144  -25.7493   16.2673 C.3       10 UNK        -0.1976 
     37 N         -52.2374  -26.2072   15.4589 N.am      10 UNK        -0.4242 
     38 C         -51.3268  -25.8115   16.3551 C.2       10 UNK         0.5072 
     39 O         -51.4293  -24.7820   17.0247 O.2       10 UNK        -0.5224 
     40 CA        -50.1104  -26.7255   16.5776 C.3       9 UNK         0.0343 
     41 CB        -50.2411  -28.1245   15.9410 C.3       9 UNK        -0.2003 
     42 N         -48.9151  -26.0724   16.0526 N.am      9 UNK        -0.4272 
     43 C         -47.9663  -25.4868   16.7933 C.2       9 UNK         0.4988 
     44 O         -47.9748  -25.4467   18.0248 O.2       9 UNK        -0.5108 
     45 CA        -46.7888  -24.8535   16.0338 C.3       8 UNK         0.0248 
     46 CB        -45.7983  -25.9367   15.5762 C.3       8 UNK        -0.2001 
     47 N         -47.2075  -24.0457   14.8851 N.am      8 UNK        -0.4140 
     48 C         -47.8562  -22.8752   14.9803 C.2       8 UNK         0.5028 
     49 O         -48.1537  -22.3401   16.0491 O.2       8 UNK        -0.5428 
     50 CA        -48.2267  -22.1688   13.6647 C.3       7 UNK         0.0264 
     51 CB        -47.0188  -21.4062   13.0964 C.3       7 UNK        -0.1988 
     52 N         -48.7486  -23.0876   12.6524 N.am      7 UNK        -0.4454 
     53 C         -49.9328  -23.7122   12.7328 C.2       7 UNK         0.5027 
     54 O         -50.7475  -23.5204   13.6352 O.2       7 UNK        -0.5083 
     55 CA        -50.2613  -24.7379   11.6291 C.3       6 UNK         0.0844 
     56 C56       -50.9228  -24.0357   10.4162 C.3       14 UNK        -0.0967 
     57 S57       -51.3781  -25.1653    9.0580 S.3       14 UNK        -0.2604 
     58 C58       -52.7483  -26.1000    9.7997 C.3       14 UNK         0.0134 
     59 N         -49.0964  -25.5530   11.2660 N.am      6 UNK        -0.4116 
     60 C         -48.4507  -26.3714   12.1100 C.2       5 UNK         0.5034 
     61 O         -48.8059  -26.5812   13.2683 O.2       5 UNK        -0.5045 
     62 CA        -47.1558  -27.0202   11.6030 C.3       5 UNK         0.0224 
     63 CB        -47.4498  -28.2961   10.7987 C.3       5 UNK        -0.1978 
     64 N         -46.3690  -26.0838   10.7994 N.am      5 UNK        -0.4737 
     65 C         -45.6933  -25.0449   11.3103 C.2       4 UNK         0.5027 
     66 O         -45.6332  -24.7983   12.5138 O.2       4 UNK        -0.5211 
     67 CA        -45.0044  -24.0984   10.3126 C.3       4 UNK         0.0297 
     68 CB        -43.6127  -24.6308    9.9378 C.3       4 UNK        -0.1993 
     69 N         -45.7926  -23.8819    9.0974 N.am      4 UNK        -0.4486 
     70 C         -46.9858  -23.2720    9.0695 C.2       3 UNK         0.4961 
     71 O         -47.5259  -22.7781   10.0586 O.2       3 UNK        -0.5105 
     72 CA        -47.7265  -23.2546    7.7215 C.3       3 UNK         0.0299 
     73 CB        -47.3074  -22.0294    6.8941 C.3       3 UNK        -0.1972 
     74 N         -47.5626  -24.4728    6.9169 N.am      3 UNK        -0.4305 
     75 C         -47.8541  -25.7137    7.3313 C.2       2 UNK         0.5006 
     76 O         -48.1879  -25.9940    8.4827 O.2       2 UNK        -0.5106 
     77 CA        -47.7587  -26.8403    6.2931 C.3       2 UNK         0.0296 
     78 CB        -46.7789  -27.9328    6.7542 C.3       2 UNK        -0.2002 
     79 N         -49.0826  -27.4278    6.0865 N.am      2 UNK        -0.4032 
     80 C         -50.0767  -26.8230    5.4203 C.2       1 UNK         0.5000 
     81 O         -49.9276  -25.7467    4.8320 O.2       1 UNK        -0.5238 
     82 H82       -53.8572  -26.1351    2.5144 H         1 UNK         0.0889 
     83 H83       -53.5556  -27.5058    1.4453 H         1 UNK         0.0889 
     84 H84       -52.5554  -26.0552    1.3256 H         1 UNK         0.0889 
     85 H85       -53.0756  -26.4494    4.5661 H         1 UNK         0.3028 
     86 H86       -51.9489  -27.0702    6.3306 H         1 UNK         0.0864 
     87 H87       -50.8628  -29.3266    6.5003 H         1 UNK         0.0720 
     88 H88       -50.9738  -29.5274    4.7737 H         1 UNK         0.0720 
     89 H89       -52.3813  -31.4449    7.3163 H         1 UNK         0.0814 
     90 H90       -54.0343  -30.9972    7.6587 H         1 UNK         0.0814 
     91 H91       -53.5141  -27.9020    7.9184 H         1 UNK         0.1469 
     92 H92       -51.3575  -27.6011   11.6074 H         1 UNK         0.1381 
     93 H93       -51.5839  -31.3587    9.5736 H         1 UNK         0.1206 
     94 H94       -49.7104  -30.7169   11.3127 H         1 UNK         0.0813 
     95 H95       -50.0906  -29.4439   12.4439 H         1 UNK         0.0813 
     96 H96       -52.0540  -29.2888   13.8427 H         1 UNK         0.0638 
     97 H97       -51.9754  -30.6139   14.9774 H         1 UNK         0.0638 
     98 H98       -54.0894  -31.5555   13.8530 H         1 UNK         0.0568 
     99 H99       -55.9633  -28.7872   14.2306 H         1 UNK         0.3450 
    100 H100      -56.0799  -28.8791   15.9699 H         1 UNK         0.3450 
    101 H101      -53.9894  -28.9724   12.4234 H         1 UNK         0.2987 
    102 H102      -55.2624  -29.7058    9.9326 H         1 UNK         0.0766 
    103 H103      -57.4780  -30.7860   10.0541 H         1 UNK         0.0798 
    104 H104      -57.6631  -29.1294    9.5065 H         1 UNK         0.0798 
    105 H105      -58.0612  -29.5591   11.1697 H         1 UNK         0.0798 
    106 H106      -55.1241  -27.5405   10.3392 H         1 UNK         0.3198 
    107 H107      -55.1455  -25.5840   11.2329 H         1 UNK         0.0843 
    108 H108      -57.7407  -25.0322   12.7543 H         1 UNK         0.0831 
    109 H109      -57.5893  -25.1296   11.0064 H         1 UNK         0.0831 
    110 H110      -56.7704  -23.8458   11.8796 H         1 UNK         0.0831 
    111 H111      -55.5077  -24.7049   13.8497 H         1 UNK         0.3133 
    112 H112      -53.2884  -24.4592   15.0227 H         1 UNK         0.0566 
    113 H113      -54.7049  -26.8102   16.4300 H         1 UNK         0.0814 
    114 H114      -55.4706  -25.2756   16.0438 H         1 UNK         0.0814 
    115 H115      -54.1667  -25.3278   17.2104 H         1 UNK         0.0814 
    116 H116      -52.0635  -27.0259   14.8899 H         1 UNK         0.3091 
    117 H117      -50.0230  -26.8686   17.6565 H         1 UNK         0.0702 
    118 H118      -49.3878  -28.7503   16.2028 H         1 UNK         0.0785 
    119 H119      -50.2877  -28.0805   14.8531 H         1 UNK         0.0785 
    120 H120      -51.1338  -28.6385   16.3001 H         1 UNK         0.0785 
    121 H121      -48.8248  -26.0678   15.0384 H         1 UNK         0.2998 
    122 H122      -46.2643  -24.1945   16.7289 H         1 UNK         0.0697 
    123 H123      -44.9110  -25.4957   15.1218 H         1 UNK         0.0825 
    124 H124      -46.2470  -26.6118   14.8469 H         1 UNK         0.0825 
    125 H125      -45.4634  -26.5421   16.4195 H         1 UNK         0.0825 
    126 H126      -46.9265  -24.3783   13.9673 H         1 UNK         0.3029 
    127 H127      -49.0093  -21.4410   13.8907 H         1 UNK         0.0897 
    128 H128      -46.2058  -22.0800   12.8246 H         1 UNK         0.0792 
    129 H129      -46.6260  -20.6970   13.8262 H         1 UNK         0.0792 
    130 H130      -47.2922  -20.8385   12.2066 H         1 UNK         0.0792 
    131 H131      -48.1775  -23.2264   11.8222 H         1 UNK         0.3086 
    132 H132      -50.9946  -25.4169   12.0654 H         1 UNK         0.0583 
    133 H133      -51.8205  -23.4983   10.7287 H         1 UNK         0.1020 
    134 H134      -50.2517  -23.2803   10.0039 H         1 UNK         0.1020 
    135 H135      -52.9115  -25.7821   10.8284 H         1 UNK         0.0694 
    136 H136      -53.6643  -25.8700    9.2540 H         1 UNK         0.0694 
    137 H137      -48.7754  -25.4949   10.3035 H         1 UNK         0.2989 
    138 H138      -46.5589  -27.3019   12.4732 H         1 UNK         0.1055 
    139 H139      -46.5448  -28.7009   10.3456 H         1 UNK         0.0806 
    140 H140      -48.1782  -28.1256   10.0051 H         1 UNK         0.0806 
    141 H141      -47.8549  -29.0701   11.4495 H         1 UNK         0.0806 
    142 H142      -46.4691  -26.1570    9.7950 H         1 UNK         0.3061 
    143 H143      -44.8790  -23.1325   10.8068 H         1 UNK         0.0734 
    144 H144      -43.6703  -25.5883    9.4185 H         1 UNK         0.0832 
    145 H145      -43.0787  -23.9303    9.2955 H         1 UNK         0.0832 
    146 H146      -43.0014  -24.7805   10.8290 H         1 UNK         0.0832 
    147 H147      -45.4277  -24.2598    8.2352 H         1 UNK         0.3156 
    148 H148      -48.7919  -23.1638    7.9422 H         1 UNK         0.0589 
    149 H149      -47.9098  -21.9351    5.9904 H         1 UNK         0.0808 
    150 H150      -46.2592  -22.0805    6.5968 H         1 UNK         0.0808 
    151 H151      -47.4397  -21.1093    7.4655 H         1 UNK         0.0808 
    152 H152      -47.3099  -24.3392    5.9480 H         1 UNK         0.3098 
    153 H153      -47.3980  -26.4345    5.3454 H         1 UNK         0.0720 
    154 H154      -45.7845  -27.5185    6.9251 H         1 UNK         0.0791 
    155 H155      -46.6780  -28.7160    6.0027 H         1 UNK         0.0791 
    156 H156      -47.1006  -28.4022    7.6845 H         1 UNK         0.0791 
    157 H157      -49.2804  -28.2767    6.5947 H         1 UNK         0.3028 
@<TRIPOS>BOND
     1    1    2 1    
     2    1   82 1    
     3    1   83 1    
     4    1   84 1    
     5    2    3 2    
     6    2    4 am   BACKBONE|DICT|INTERRES
     7    4    5 1    
     8    4   85 1    
     9    5    6 1    
    10    5   80 1    
    11    5   86 1    
    12    6    7 1    
    13    6   87 1    
    14    6   88 1    
    15    7    8 1    
    16    8    9 1    
    17    8   89 1    
    18    8   90 1    
    19    9   10 ar   
    20    9   14 ar   
    21   10   11 ar   
    22   10   91 1    
    23   11   12 ar   
    24   11   58 1    
    25   12   13 ar   
    26   12   92 1    
    27   13   14 ar   
    28   13   15 1    
    29   14   93 1    
    30   15   16 1    
    31   15   94 1    
    32   15   95 1    
    33   16   17 1    
    34   17   18 1    
    35   17   96 1    
    36   17   97 1    
    37   18   19 1    
    38   18   22 1    
    39   18   98 1    
    40   19   20 am   BACKBONE|DICT|INTERRES
    41   19   21 2    
    42   20   99 1    
    43   20  100 1    
    44   22   23 am   BACKBONE|DICT|INTERRES
    45   22  101 1    
    46   23   24 2    
    47   23   25 1    
    48   25   26 1    
    49   25   27 1    
    50   25  102 1    
    51   26  103 1    
    52   26  104 1    
    53   26  105 1    
    54   27   28 am   BACKBONE|DICT|INTERRES
    55   27  106 1    
    56   28   29 2    
    57   28   30 1    
    58   30   31 1    
    59   30   32 1    
    60   30  107 1    
    61   31  108 1    
    62   31  109 1    
    63   31  110 1    
    64   32   33 am   BACKBONE|DICT|INTERRES
    65   32  111 1    
    66   33   34 2    
    67   33   35 1    
    68   35   36 1    
    69   35   37 1    
    70   35  112 1    
    71   36  113 1    
    72   36  114 1    
    73   36  115 1    
    74   37   38 am   BACKBONE|DICT|INTERRES
    75   37  116 1    
    76   38   39 2    
    77   38   40 1    
    78   40   41 1    
    79   40   42 1    
    80   40  117 1    
    81   41  118 1    
    82   41  119 1    
    83   41  120 1    
    84   42   43 am   BACKBONE|DICT|INTERRES
    85   42  121 1    
    86   43   44 2    
    87   43   45 1    
    88   45   46 1    
    89   45   47 1    
    90   45  122 1    
    91   46  123 1    
    92   46  124 1    
    93   46  125 1    
    94   47   48 am   BACKBONE|DICT|INTERRES
    95   47  126 1    
    96   48   49 2    
    97   48   50 1    
    98   50   51 1    
    99   50   52 1    
   100   50  127 1    
   101   51  128 1    
   102   51  129 1    
   103   51  130 1    
   104   52   53 am   BACKBONE|DICT|INTERRES
   105   52  131 1    
   106   53   54 2    
   107   53   55 1    
   108   55   56 1    
   109   55   59 1    
   110   55  132 1    
   111   56   57 1    
   112   56  133 1    
   113   56  134 1    
   114   57   58 1    
   115   58  135 1    
   116   58  136 1    
   117   59   60 am   BACKBONE|DICT|INTERRES
   118   59  137 1    
   119   60   61 2    
   120   60   62 1    
   121   62   63 1    
   122   62   64 1    
   123   62  138 1    
   124   63  139 1    
   125   63  140 1    
   126   63  141 1    
   127   64   65 am   BACKBONE|DICT|INTERRES
   128   64  142 1    
   129   65   66 2    
   130   65   67 1    
   131   67   68 1    
   132   67   69 1    
   133   67  143 1    
   134   68  144 1    
   135   68  145 1    
   136   68  146 1    
   137   69   70 am   BACKBONE|DICT|INTERRES
   138   69  147 1    
   139   70   71 2    
   140   70   72 1    
   141   72   73 1    
   142   72   74 1    
   143   72  148 1    
   144   73  149 1    
   145   73  150 1    
   146   73  151 1    
   147   74   75 am   BACKBONE|DICT|INTERRES
   148   74  152 1    
   149   75   76 2    
   150   75   77 1    
   151   77   78 1    
   152   77   79 1    
   153   77  153 1    
   154   78  154 1    
   155   78  155 1    
   156   78  156 1    
   157   79   80 am   BACKBONE|DICT|INTERRES
   158   79  157 1    
   159   80   81 2    
@<TRIPOS>SUBSTRUCTURE
     1 UNK         1 GROUP             0       ****    0 ROOT    
