@<TRIPOS>MOLECULE
3R207
157   159    1
SMALL
USER_CHARGES


@<TRIPOS>ATOM
      1 CA        -51.5391  -30.8065    6.3646 C.3       0 UNK        -0.1975 
      2 C         -51.0066  -29.6388    5.5506 C.2       0 UNK         0.4852 
      3 O         -50.3389  -29.8521    4.5380 O.2       0 UNK        -0.5216 
      4 N         -51.2867  -28.4043    5.9911 N.am      1 UNK        -0.4461 
      5 CA        -50.8421  -27.1659    5.3334 C.3       1 UNK         0.0864 
      6 C6        -51.6767  -25.9338    5.7665 C.3       14 UNK        -0.0898 
      7 S7        -53.4548  -26.1301    5.3967 S.3       14 UNK        -0.2598 
      8 C8        -54.2153  -26.0509    7.0510 C.3       14 UNK         0.0286 
      9 C9        -53.8177  -27.2356    7.9188 C.ar      14 UNK        -0.0844 
     10 C10       -52.8495  -27.0852    8.9144 C.ar      14 UNK        -0.0881 
     11 C11       -52.4531  -28.1748    9.6958 C.ar      14 UNK        -0.0643 
     12 C12       -53.0585  -29.4189    9.4900 C.ar      14 UNK        -0.0930 
     13 C13       -54.0497  -29.5756    8.5157 C.ar      14 UNK        -0.0827 
     14 C14       -54.4202  -28.4814    7.7291 C.ar      14 UNK        -0.1249 
     15 C15       -54.7123  -30.9267    8.2927 C.3       14 UNK         0.0141 
     16 S16       -56.2149  -31.1113    9.3016 S.3       14 UNK        -0.2313 
     17 C17       -55.5196  -31.7843   10.8455 C.3       14 UNK        -0.0915 
     18 CA        -56.5789  -31.8747   11.9718 C.3       13 UNK         0.0968 
     19 C         -56.0477  -32.7283   13.1559 C.2       13 UNK         0.5732 
     20 N         -56.2502  -34.0382   13.1148 N.am      13 UNK        -0.7310 
     21 O         -55.4224  -32.2229   14.0863 O.2       13 UNK        -0.5035 
     22 N         -57.0079  -30.5385   12.4045 N.am      13 UNK        -0.4233 
     23 C         -58.0635  -30.2872   13.1847 C.2       13 UNK         0.4989 
     24 O         -58.8791  -31.1432   13.5341 O.2       13 UNK        -0.4996 
     25 CA        -58.1998  -28.8369   13.6855 C.3       12 UNK         0.0216 
     26 CB        -59.5554  -28.5681   14.3665 C.3       12 UNK        -0.1964 
     27 N         -57.1217  -28.5149   14.6242 N.am      12 UNK        -0.4276 
     28 C         -55.8701  -28.1960   14.2736 C.2       12 UNK         0.5020 
     29 O         -55.4936  -28.0944   13.1025 O.2       12 UNK        -0.5489 
     30 CA        -54.8628  -28.0239   15.4198 C.3       11 UNK         0.0294 
     31 CB        -54.1466  -29.3537   15.7048 C.3       11 UNK        -0.2019 
     32 N         -53.8623  -27.0134   15.0867 N.am      11 UNK        -0.4493 
     33 C         -54.0372  -25.6919   15.1856 C.2       11 UNK         0.4932 
     34 O         -55.0602  -25.1757   15.6400 O.2       11 UNK        -0.5029 
     35 CA        -52.8618  -24.8075   14.7193 C.3       10 UNK         0.0280 
     36 CB        -53.1182  -23.3062   14.9492 C.3       10 UNK        -0.1976 
     37 N         -51.5926  -25.1688   15.3583 N.am      10 UNK        -0.4242 
     38 C         -50.8250  -26.2198   15.0464 C.2       10 UNK         0.5072 
     39 O         -51.1358  -27.0540   14.1936 O.2       10 UNK        -0.5224 
     40 CA        -49.4961  -26.3564   15.8136 C.3       9 UNK         0.0343 
     41 CB        -48.6685  -27.5686   15.3450 C.3       9 UNK        -0.2003 
     42 N         -48.6714  -25.1525   15.6934 N.am      9 UNK        -0.4272 
     43 C         -48.8137  -24.0293   16.4102 C.2       9 UNK         0.4988 
     44 O         -49.6981  -23.8671   17.2520 O.2       9 UNK        -0.5108 
     45 CA        -47.8272  -22.8917   16.1139 C.3       8 UNK         0.0248 
     46 CB        -46.4077  -23.2559   16.5820 C.3       8 UNK        -0.2001 
     47 N         -47.8136  -22.6013   14.6810 N.am      8 UNK        -0.4140 
     48 C         -48.4855  -21.5993   14.0963 C.2       8 UNK         0.5028 
     49 O         -49.1022  -20.7308   14.7150 O.2       8 UNK        -0.5428 
     50 CA        -48.4861  -21.5613   12.5547 C.3       7 UNK         0.0264 
     51 CB        -47.3469  -20.6668   12.0409 C.3       7 UNK        -0.1988 
     52 N         -48.3881  -22.8921   11.9427 N.am      7 UNK        -0.4454 
     53 C         -49.3226  -23.8459   12.0822 C.2       7 UNK         0.5027 
     54 O         -50.4195  -23.6335   12.5973 O.2       7 UNK        -0.5083 
     55 CA        -48.9951  -25.2830   11.6240 C.3       6 UNK         0.0844 
     56 C56       -49.8325  -25.6806   10.3850 C.3       14 UNK        -0.0967 
     57 S57       -49.7843  -27.4817   10.0809 S.3       14 UNK        -0.2604 
     58 C58       -51.3867  -28.0109   10.7719 C.3       14 UNK         0.0134 
     59 N         -47.5651  -25.5570   11.4433 N.am      6 UNK        -0.4116 
     60 C         -46.6348  -25.5442   12.4086 C.2       5 UNK         0.5034 
     61 O         -46.8496  -25.1711   13.5622 O.2       5 UNK        -0.5045 
     62 CA        -45.2267  -26.0106   12.0199 C.3       5 UNK         0.0224 
     63 CB        -45.1925  -27.5393   11.8569 C.3       5 UNK        -0.1978 
     64 N         -44.8051  -25.3767   10.7720 N.am      5 UNK        -0.4737 
     65 C         -43.9753  -24.3289   10.6890 C.2       4 UNK         0.5027 
     66 O         -43.3768  -23.8497   11.6523 O.2       4 UNK        -0.5211 
     67 CA        -43.7877  -23.6904    9.2980 C.3       4 UNK         0.0297 
     68 CB        -42.5576  -24.2882    8.5966 C.3       4 UNK        -0.1993 
     69 N         -44.9552  -23.8184    8.4185 N.am      4 UNK        -0.4486 
     70 C         -46.1729  -23.3243    8.6832 C.2       3 UNK         0.4961 
     71 O         -46.4435  -22.6738    9.6912 O.2       3 UNK        -0.5105 
     72 CA        -47.2992  -23.6527    7.6880 C.3       3 UNK         0.0299 
     73 CB        -47.3661  -22.5833    6.5870 C.3       3 UNK        -0.1972 
     74 N         -47.2445  -24.9838    7.0674 N.am      3 UNK        -0.4305 
     75 C         -47.0552  -26.1602    7.6824 C.2       2 UNK         0.5006 
     76 O         -46.7622  -26.2751    8.8729 O.2       2 UNK        -0.5106 
     77 CA        -47.2724  -27.4175    6.8253 C.3       2 UNK         0.0296 
     78 CB        -46.7955  -28.6996    7.5336 C.3       2 UNK        -0.2002 
     79 N         -48.6879  -27.5652    6.4845 N.am      2 UNK        -0.4032 
     80 C         -49.3331  -26.8897    5.5219 C.2       1 UNK         0.5000 
     81 O         -48.7782  -26.0580    4.7994 O.2       1 UNK        -0.5238 
     82 H82       -51.4825  -30.5981    7.4320 H         1 UNK         0.0889 
     83 H83       -50.9566  -31.7068    6.1706 H         1 UNK         0.0889 
     84 H84       -52.5764  -31.0078    6.0999 H         1 UNK         0.0889 
     85 H85       -51.8802  -28.2827    6.8024 H         1 UNK         0.3028 
     86 H86       -50.9904  -27.2963    4.2590 H         1 UNK         0.0864 
     87 H87       -51.5307  -25.7194    6.8257 H         1 UNK         0.0720 
     88 H88       -51.3385  -25.0421    5.2347 H         1 UNK         0.0720 
     89 H89       -55.3004  -26.0334    6.9392 H         1 UNK         0.0814 
     90 H90       -53.9453  -25.1082    7.5298 H         1 UNK         0.0814 
     91 H91       -52.3956  -26.1184    9.0700 H         1 UNK         0.1469 
     92 H92       -52.7609  -30.2664   10.0916 H         1 UNK         0.1381 
     93 H93       -55.1774  -28.5988    6.9655 H         1 UNK         0.1206 
     94 H94       -54.9854  -31.0322    7.2417 H         1 UNK         0.0813 
     95 H95       -54.0147  -31.7384    8.5049 H         1 UNK         0.0813 
     96 H96       -54.6784  -31.1682   11.1659 H         1 UNK         0.0638 
     97 H97       -55.1130  -32.7713   10.6158 H         1 UNK         0.0638 
     98 H98       -57.4583  -32.3840   11.5721 H         1 UNK         0.0568 
     99 H99       -55.8999  -34.6102   13.8671 H         1 UNK         0.3450 
    100 H100      -56.7510  -34.4659   12.3515 H         1 UNK         0.3450 
    101 H101      -56.3556  -29.7801   12.2376 H         1 UNK         0.2987 
    102 H102      -58.1284  -28.1788   12.8164 H         1 UNK         0.0766 
    103 H103      -59.6501  -27.5228   14.6613 H         1 UNK         0.0798 
    104 H104      -59.6924  -29.1816   15.2579 H         1 UNK         0.0798 
    105 H105      -60.3818  -28.7878   13.6893 H         1 UNK         0.0798 
    106 H106      -57.3370  -28.6231   15.6054 H         1 UNK         0.3198 
    107 H107      -55.3942  -27.7112   16.3216 H         1 UNK         0.0843 
    108 H108      -54.8592  -30.1294   15.9888 H         1 UNK         0.0831 
    109 H109      -53.4324  -29.2547   16.5224 H         1 UNK         0.0831 
    110 H110      -53.6069  -29.7168   14.8288 H         1 UNK         0.0831 
    111 H111      -52.9973  -27.3367   14.6615 H         1 UNK         0.3133 
    112 H112      -52.7575  -24.9613   13.6430 H         1 UNK         0.0566 
    113 H113      -52.2983  -22.7019   14.5595 H         1 UNK         0.0814 
    114 H114      -54.0266  -22.9811   14.4406 H         1 UNK         0.0814 
    115 H115      -53.2332  -23.0737   16.0086 H         1 UNK         0.0814 
    116 H116      -51.2548  -24.5501   16.0877 H         1 UNK         0.3091 
    117 H117      -49.7449  -26.5106   16.8656 H         1 UNK         0.0702 
    118 H118      -47.7452  -27.6638   15.9166 H         1 UNK         0.0785 
    119 H119      -48.4025  -27.4930   14.2899 H         1 UNK         0.0785 
    120 H120      -49.2264  -28.4969   15.4748 H         1 UNK         0.0785 
    121 H121      -47.9426  -25.1855   14.9831 H         1 UNK         0.2998 
    122 H122      -48.1491  -22.0123   16.6760 H         1 UNK         0.0697 
    123 H123      -46.0080  -24.1202   16.0499 H         1 UNK         0.0825 
    124 H124      -46.3974  -23.4939   17.6465 H         1 UNK         0.0825 
    125 H125      -45.7187  -22.4251   16.4298 H         1 UNK         0.0825 
    126 H126      -47.3635  -23.2910   14.0889 H         1 UNK         0.3029 
    127 H127      -49.4342  -21.1181   12.2422 H         1 UNK         0.0897 
    128 H128      -47.4227  -20.5102   10.9648 H         1 UNK         0.0792 
    129 H129      -47.3774  -19.6828   12.5108 H         1 UNK         0.0792 
    130 H130      -46.3676  -21.0999   12.2489 H         1 UNK         0.0792 
    131 H131      -47.5429  -23.0930   11.4180 H         1 UNK         0.3086 
    132 H132      -49.3193  -25.9227   12.4465 H         1 UNK         0.0583 
    133 H133      -50.8694  -25.3669   10.5119 H         1 UNK         0.1020 
    134 H134      -49.4717  -25.1671    9.4939 H         1 UNK         0.1020 
    135 H135      -51.2302  -28.9530   11.2993 H         1 UNK         0.0694 
    136 H136      -51.7328  -27.3026   11.5259 H         1 UNK         0.0694 
    137 H137      -47.2952  -25.8810   10.5160 H         1 UNK         0.2989 
    138 H138      -44.5501  -25.7404   12.8340 H         1 UNK         0.1055 
    139 H139      -45.5175  -28.0367   12.7719 H         1 UNK         0.0806 
    140 H140      -44.1834  -27.8891   11.6388 H         1 UNK         0.0806 
    141 H141      -45.8442  -27.8795   11.0506 H         1 UNK         0.0806 
    142 H142      -45.2901  -25.6775    9.9305 H         1 UNK         0.3061 
    143 H143      -43.6101  -22.6241    9.4525 H         1 UNK         0.0734 
    144 H144      -41.6663  -24.1835    9.2170 H         1 UNK         0.0832 
    145 H145      -42.6872  -25.3516    8.3908 H         1 UNK         0.0832 
    146 H146      -42.3528  -23.7837    7.6522 H         1 UNK         0.0832 
    147 H147      -44.8346  -24.3547    7.5717 H         1 UNK         0.3156 
    148 H148      -48.2346  -23.6080    8.2474 H         1 UNK         0.0589 
    149 H149      -46.4819  -22.6055    5.9489 H         1 UNK         0.0808 
    150 H150      -48.2419  -22.7204    5.9522 H         1 UNK         0.0808 
    151 H151      -47.4340  -21.5825    7.0164 H         1 UNK         0.0808 
    152 H152      -47.5292  -25.0316    6.0943 H         1 UNK         0.3098 
    153 H153      -46.6904  -27.3034    5.9083 H         1 UNK         0.0720 
    154 H154      -46.9111  -29.5733    6.8920 H         1 UNK         0.0791 
    155 H155      -47.3502  -28.8843    8.4548 H         1 UNK         0.0791 
    156 H156      -45.7396  -28.6293    7.7985 H         1 UNK         0.0791 
    157 H157      -49.2266  -28.1935    7.0628 H         1 UNK         0.3028 
@<TRIPOS>BOND
     1    1    2 1    
     2    1   82 1    
     3    1   83 1    
     4    1   84 1    
     5    2    3 2    
     6    2    4 am   BACKBONE|DICT|INTERRES
     7    4    5 1    
     8    4   85 1    
     9    5    6 1    
    10    5   80 1    
    11    5   86 1    
    12    6    7 1    
    13    6   87 1    
    14    6   88 1    
    15    7    8 1    
    16    8    9 1    
    17    8   89 1    
    18    8   90 1    
    19    9   10 ar   
    20    9   14 ar   
    21   10   11 ar   
    22   10   91 1    
    23   11   12 ar   
    24   11   58 1    
    25   12   13 ar   
    26   12   92 1    
    27   13   14 ar   
    28   13   15 1    
    29   14   93 1    
    30   15   16 1    
    31   15   94 1    
    32   15   95 1    
    33   16   17 1    
    34   17   18 1    
    35   17   96 1    
    36   17   97 1    
    37   18   19 1    
    38   18   22 1    
    39   18   98 1    
    40   19   20 am   BACKBONE|DICT|INTERRES
    41   19   21 2    
    42   20   99 1    
    43   20  100 1    
    44   22   23 am   BACKBONE|DICT|INTERRES
    45   22  101 1    
    46   23   24 2    
    47   23   25 1    
    48   25   26 1    
    49   25   27 1    
    50   25  102 1    
    51   26  103 1    
    52   26  104 1    
    53   26  105 1    
    54   27   28 am   BACKBONE|DICT|INTERRES
    55   27  106 1    
    56   28   29 2    
    57   28   30 1    
    58   30   31 1    
    59   30   32 1    
    60   30  107 1    
    61   31  108 1    
    62   31  109 1    
    63   31  110 1    
    64   32   33 am   BACKBONE|DICT|INTERRES
    65   32  111 1    
    66   33   34 2    
    67   33   35 1    
    68   35   36 1    
    69   35   37 1    
    70   35  112 1    
    71   36  113 1    
    72   36  114 1    
    73   36  115 1    
    74   37   38 am   BACKBONE|DICT|INTERRES
    75   37  116 1    
    76   38   39 2    
    77   38   40 1    
    78   40   41 1    
    79   40   42 1    
    80   40  117 1    
    81   41  118 1    
    82   41  119 1    
    83   41  120 1    
    84   42   43 am   BACKBONE|DICT|INTERRES
    85   42  121 1    
    86   43   44 2    
    87   43   45 1    
    88   45   46 1    
    89   45   47 1    
    90   45  122 1    
    91   46  123 1    
    92   46  124 1    
    93   46  125 1    
    94   47   48 am   BACKBONE|DICT|INTERRES
    95   47  126 1    
    96   48   49 2    
    97   48   50 1    
    98   50   51 1    
    99   50   52 1    
   100   50  127 1    
   101   51  128 1    
   102   51  129 1    
   103   51  130 1    
   104   52   53 am   BACKBONE|DICT|INTERRES
   105   52  131 1    
   106   53   54 2    
   107   53   55 1    
   108   55   56 1    
   109   55   59 1    
   110   55  132 1    
   111   56   57 1    
   112   56  133 1    
   113   56  134 1    
   114   57   58 1    
   115   58  135 1    
   116   58  136 1    
   117   59   60 am   BACKBONE|DICT|INTERRES
   118   59  137 1    
   119   60   61 2    
   120   60   62 1    
   121   62   63 1    
   122   62   64 1    
   123   62  138 1    
   124   63  139 1    
   125   63  140 1    
   126   63  141 1    
   127   64   65 am   BACKBONE|DICT|INTERRES
   128   64  142 1    
   129   65   66 2    
   130   65   67 1    
   131   67   68 1    
   132   67   69 1    
   133   67  143 1    
   134   68  144 1    
   135   68  145 1    
   136   68  146 1    
   137   69   70 am   BACKBONE|DICT|INTERRES
   138   69  147 1    
   139   70   71 2    
   140   70   72 1    
   141   72   73 1    
   142   72   74 1    
   143   72  148 1    
   144   73  149 1    
   145   73  150 1    
   146   73  151 1    
   147   74   75 am   BACKBONE|DICT|INTERRES
   148   74  152 1    
   149   75   76 2    
   150   75   77 1    
   151   77   78 1    
   152   77   79 1    
   153   77  153 1    
   154   78  154 1    
   155   78  155 1    
   156   78  156 1    
   157   79   80 am   BACKBONE|DICT|INTERRES
   158   79  157 1    
   159   80   81 2    
@<TRIPOS>SUBSTRUCTURE
     1 UNK         1 GROUP             0       ****    0 ROOT    
