@<TRIPOS>MOLECULE
3R207
157   159    1
SMALL
USER_CHARGES


@<TRIPOS>ATOM
      1 CA        -49.5645  -31.7252    2.6351 C.3       0 UNK        -0.1975 
      2 C         -49.7240  -30.9790    3.9516 C.2       0 UNK         0.4852 
      3 O         -50.8435  -30.8426    4.4458 O.2       0 UNK        -0.5216 
      4 N         -48.6153  -30.4951    4.5200 N.am      1 UNK        -0.4461 
      5 CA        -48.5577  -29.7225    5.7585 C.3       1 UNK         0.0864 
      6 C6        -48.6493  -30.6311    7.0162 C.3       14 UNK        -0.0898 
      7 S7        -49.3799  -29.7675    8.4443 S.3       14 UNK        -0.2598 
      8 C8        -51.1606  -30.0371    8.1610 C.3       14 UNK         0.0286 
      9 C9        -51.9500  -28.7777    8.4809 C.ar      14 UNK        -0.0844 
     10 C10       -51.8579  -27.6752    7.6286 C.ar      14 UNK        -0.0881 
     11 C11       -52.5256  -26.4855    7.9259 C.ar      14 UNK        -0.0643 
     12 C12       -53.3250  -26.4145    9.0694 C.ar      14 UNK        -0.0930 
     13 C13       -53.4333  -27.5139    9.9273 C.ar      14 UNK        -0.0827 
     14 C14       -52.7476  -28.6961    9.6270 C.ar      14 UNK        -0.1249 
     15 C15       -54.2375  -27.3895   11.2101 C.3       14 UNK         0.0141 
     16 S16       -56.0077  -27.7091   10.9608 S.3       14 UNK        -0.2313 
     17 C17       -56.7257  -26.8611   12.4168 C.3       14 UNK        -0.0915 
     18 CA        -57.3183  -27.7916   13.5097 C.3       13 UNK         0.0968 
     19 C         -58.5667  -28.5770   13.0114 C.2       13 UNK         0.5732 
     20 N         -59.6997  -27.9037   12.8617 N.am      13 UNK        -0.7310 
     21 O         -58.5168  -29.7757   12.7386 O.2       13 UNK        -0.5035 
     22 N         -56.2886  -28.6432   14.1221 N.am      13 UNK        -0.4233 
     23 C         -56.4520  -29.3378   15.2557 C.2       13 UNK         0.4989 
     24 O         -57.4395  -29.2403   15.9861 O.2       13 UNK        -0.4996 
     25 CA        -55.3274  -30.3018   15.6491 C.3       12 UNK         0.0216 
     26 CB        -54.8433  -31.1641   14.4661 C.3       12 UNK        -0.1964 
     27 N         -54.2006  -29.5604   16.2097 N.am      12 UNK        -0.4276 
     28 C         -53.5011  -29.9233   17.2951 C.2       12 UNK         0.5020 
     29 O         -53.8017  -30.8836   18.0081 O.2       12 UNK        -0.5489 
     30 CA        -52.2411  -29.0893   17.6310 C.3       11 UNK         0.0294 
     31 CB        -51.2422  -29.8441   18.5338 C.3       11 UNK        -0.2019 
     32 N         -51.5674  -28.5644   16.4358 N.am      11 UNK        -0.4493 
     33 C         -51.1150  -29.2670   15.3842 C.2       11 UNK         0.4932 
     34 O         -51.0029  -30.4937   15.3801 O.2       11 UNK        -0.5029 
     35 CA        -50.7642  -28.4769   14.1033 C.3       10 UNK         0.0280 
     36 CB        -51.1501  -29.2535   12.8301 C.3       10 UNK        -0.1976 
     37 N         -51.3008  -27.1096   14.0287 N.am      10 UNK        -0.4242 
     38 C         -52.5515  -26.6621   14.2227 C.2       10 UNK         0.5072 
     39 O         -53.5011  -27.3955   14.5037 O.2       10 UNK        -0.5224 
     40 CA        -52.7739  -25.1374   14.1069 C.3       9 UNK         0.0343 
     41 CB        -53.9033  -24.6373   15.0316 C.3       9 UNK        -0.2003 
     42 N         -51.5494  -24.3457   14.2920 N.am      9 UNK        -0.4272 
     43 C         -50.7607  -24.2910   15.3775 C.2       9 UNK         0.4988 
     44 O         -51.0296  -24.8510   16.4415 O.2       9 UNK        -0.5108 
     45 CA        -49.4132  -23.5496   15.2507 C.3       8 UNK         0.0248 
     46 CB        -48.2470  -24.5365   15.4327 C.3       8 UNK        -0.2001 
     47 N         -49.2344  -22.8503   13.9739 N.am      8 UNK        -0.4140 
     48 C         -49.7772  -21.6643   13.6676 C.2       8 UNK         0.5028 
     49 O         -50.4487  -20.9954   14.4538 O.2       8 UNK        -0.5428 
     50 CA        -49.5661  -21.1522   12.2305 C.3       7 UNK         0.0264 
     51 CB        -48.2215  -20.4185   12.1052 C.3       7 UNK        -0.1988 
     52 N         -49.6463  -22.2077   11.2144 N.am      7 UNK        -0.4454 
     53 C         -50.7350  -22.9552   10.9720 C.2       7 UNK         0.5027 
     54 O         -51.8014  -22.8264   11.5739 O.2       7 UNK        -0.5083 
     55 CA        -50.5991  -24.0650    9.9097 C.3       6 UNK         0.0844 
     56 C56       -50.7446  -23.4491    8.4932 C.3       14 UNK        -0.0967 
     57 S57       -50.6492  -24.6333    7.1110 S.3       14 UNK        -0.2604 
     58 C58       -52.3501  -25.2796    7.0170 C.3       14 UNK         0.0134 
     59 N         -49.3810  -24.8625   10.1091 N.am      6 UNK        -0.4116 
     60 C         -49.0930  -25.5337   11.2374 C.2       5 UNK         0.5034 
     61 O         -49.8470  -25.6043   12.2044 O.2       5 UNK        -0.5045 
     62 CA        -47.6995  -26.1623   11.3661 C.3       5 UNK         0.0224 
     63 CB        -47.6323  -27.5421   10.6964 C.3       5 UNK        -0.1978 
     64 N         -46.6606  -25.2771   10.8424 N.am      5 UNK        -0.4737 
     65 C         -46.2885  -24.1339   11.4364 C.2       4 UNK         0.5027 
     66 O         -46.7343  -23.7497   12.5175 O.2       4 UNK        -0.5211 
     67 CA        -45.2839  -23.2521   10.6762 C.3       4 UNK         0.0297 
     68 CB        -43.8428  -23.6855   10.9863 C.3       4 UNK        -0.1993 
     69 N         -45.5037  -23.2715    9.2279 N.am      4 UNK        -0.4486 
     70 C         -46.5916  -22.7747    8.6223 C.2       3 UNK         0.4961 
     71 O         -47.4988  -22.1891    9.2147 O.2       3 UNK        -0.5105 
     72 CA        -46.7091  -23.0214    7.1072 C.3       3 UNK         0.0299 
     73 CB        -45.9679  -21.9273    6.3231 C.3       3 UNK        -0.1972 
     74 N         -46.2345  -24.3463    6.6810 N.am      3 UNK        -0.4305 
     75 C         -46.7509  -25.5058    7.1106 C.2       2 UNK         0.5006 
     76 O         -47.6341  -25.5843    7.9641 O.2       2 UNK        -0.5106 
     77 CA        -46.1664  -26.7985    6.5381 C.3       2 UNK         0.0296 
     78 CB        -44.9959  -27.2973    7.4056 C.3       2 UNK        -0.2002 
     79 N         -47.2347  -27.7953    6.5085 N.am      2 UNK        -0.4032 
     80 C         -47.2755  -28.8689    5.7135 C.2       1 UNK         0.5000 
     81 O         -46.3580  -29.1900    4.9498 O.2       1 UNK        -0.5238 
     82 H82       -50.1358  -31.2291    1.8511 H         1 UNK         0.0889 
     83 H83       -49.9357  -32.7448    2.7349 H         1 UNK         0.0889 
     84 H84       -48.5229  -31.7732    2.3176 H         1 UNK         0.0889 
     85 H85       -47.7147  -30.5807    4.0624 H         1 UNK         0.3028 
     86 H86       -49.4028  -29.0309    5.7437 H         1 UNK         0.0864 
     87 H87       -47.6688  -31.0199    7.2978 H         1 UNK         0.0720 
     88 H88       -49.2613  -31.5121    6.8163 H         1 UNK         0.0720 
     89 H89       -51.3447  -30.3130    7.1217 H         1 UNK         0.0814 
     90 H90       -51.4983  -30.8779    8.7685 H         1 UNK         0.0814 
     91 H91       -51.2337  -27.7287    6.7477 H         1 UNK         0.1469 
     92 H92       -53.8413  -25.4949    9.3086 H         1 UNK         0.1381 
     93 H93       -52.8172  -29.5431   10.2954 H         1 UNK         0.1206 
     94 H94       -54.1006  -26.3847   11.6065 H         1 UNK         0.0813 
     95 H95       -53.8600  -28.0798   11.9624 H         1 UNK         0.0813 
     96 H96       -55.9740  -26.2155   12.8715 H         1 UNK         0.0638 
     97 H97       -57.4955  -26.1793   12.0515 H         1 UNK         0.0638 
     98 H98       -57.6762  -27.1405   14.3099 H         1 UNK         0.0568 
     99 H99       -60.5174  -28.3915   12.5308 H         1 UNK         0.3450 
    100 H100      -59.7555  -26.9198   13.0734 H         1 UNK         0.3450 
    101 H101      -55.4374  -28.7573   13.5939 H         1 UNK         0.2987 
    102 H102      -55.7453  -30.9734   16.4022 H         1 UNK         0.0766 
    103 H103      -55.6800  -31.6640   13.9759 H         1 UNK         0.0798 
    104 H104      -54.1566  -31.9398   14.8060 H         1 UNK         0.0798 
    105 H105      -54.3214  -30.5747   13.7119 H         1 UNK         0.0798 
    106 H106      -53.9090  -28.7343   15.6860 H         1 UNK         0.3198 
    107 H107      -52.5968  -28.2201   18.1863 H         1 UNK         0.0843 
    108 H108      -50.8920  -30.7655   18.0678 H         1 UNK         0.0831 
    109 H109      -51.7024  -30.1163   19.4844 H         1 UNK         0.0831 
    110 H110      -50.3707  -29.2305   18.7616 H         1 UNK         0.0831 
    111 H111      -51.6004  -27.5589   16.3284 H         1 UNK         0.3133 
    112 H112      -49.6790  -28.3665   14.1057 H         1 UNK         0.0566 
    113 H113      -52.2131  -29.4906   12.8146 H         1 UNK         0.0814 
    114 H114      -50.6069  -30.1969   12.7637 H         1 UNK         0.0814 
    115 H115      -50.9141  -28.6839   11.9308 H         1 UNK         0.0814 
    116 H116      -50.6397  -26.4187   13.6799 H         1 UNK         0.3091 
    117 H117      -53.0839  -24.9520   13.0789 H         1 UNK         0.0702 
    118 H118      -53.6884  -24.8402   16.0810 H         1 UNK         0.0785 
    119 H119      -54.8496  -25.1257   14.7967 H         1 UNK         0.0785 
    120 H120      -54.0583  -23.5641   14.9215 H         1 UNK         0.0785 
    121 H121      -51.2279  -23.8680   13.4583 H         1 UNK         0.2998 
    122 H122      -49.3691  -22.8173   16.0594 H         1 UNK         0.0697 
    123 H123      -47.2848  -24.0251   15.3935 H         1 UNK         0.0825 
    124 H124      -48.2472  -25.3054   14.6594 H         1 UNK         0.0825 
    125 H125      -48.3045  -25.0426   16.3973 H         1 UNK         0.0825 
    126 H126      -48.6396  -23.3036   13.2872 H         1 UNK         0.3029 
    127 H127      -50.3638  -20.4367   12.0197 H         1 UNK         0.0897 
    128 H128      -48.1540  -19.6014   12.8246 H         1 UNK         0.0792 
    129 H129      -48.0957  -19.9876   11.1116 H         1 UNK         0.0792 
    130 H130      -47.3786  -21.0853   12.2886 H         1 UNK         0.0792 
    131 H131      -48.8210  -22.3488   10.6358 H         1 UNK         0.3086 
    132 H132      -51.4348  -24.7469   10.0648 H         1 UNK         0.0583 
    133 H133      -51.6881  -22.9058    8.4116 H         1 UNK         0.1020 
    134 H134      -49.9650  -22.7043    8.3255 H         1 UNK         0.1020 
    135 H135      -53.0685  -24.4936    7.2539 H         1 UNK         0.0694 
    136 H136      -52.5536  -25.5803    5.9883 H         1 UNK         0.0694 
    137 H137      -48.7313  -24.9156    9.3281 H         1 UNK         0.2989 
    138 H138      -47.5066  -26.3073   12.4315 H         1 UNK         0.1055 
    139 H139      -48.3768  -28.2153   11.1239 H         1 UNK         0.0806 
    140 H140      -46.6567  -28.0067   10.8379 H         1 UNK         0.0806 
    141 H141      -47.8264  -27.4894    9.6268 H         1 UNK         0.0806 
    142 H142      -46.3126  -25.4812    9.9168 H         1 UNK         0.3061 
    143 H143      -45.4151  -22.2250   11.0237 H         1 UNK         0.0734 
    144 H144      -43.6415  -24.7018   10.6451 H         1 UNK         0.0832 
    145 H145      -43.1179  -23.0217   10.5148 H         1 UNK         0.0832 
    146 H146      -43.6523  -23.6594   12.0602 H         1 UNK         0.0832 
    147 H147      -44.8068  -23.7316    8.6606 H         1 UNK         0.3156 
    148 H148      -47.7692  -22.9602    6.8520 H         1 UNK         0.0589 
    149 H149      -46.1336  -22.0261    5.2502 H         1 UNK         0.0808 
    150 H150      -44.8924  -21.9568    6.5022 H         1 UNK         0.0808 
    151 H151      -46.3191  -20.9355    6.6122 H         1 UNK         0.0808 
    152 H152      -45.4995  -24.3653    5.9880 H         1 UNK         0.3098 
    153 H153      -45.8202  -26.6083    5.5200 H         1 UNK         0.0720 
    154 H154      -44.2002  -26.5533    7.4594 H         1 UNK         0.0791 
    155 H155      -44.5580  -28.2074    6.9954 H         1 UNK         0.0791 
    156 H156      -45.3148  -27.5128    8.4262 H         1 UNK         0.0791 
    157 H157      -48.0217  -27.5737    7.1079 H         1 UNK         0.3028 
@<TRIPOS>BOND
     1    1    2 1    
     2    1   82 1    
     3    1   83 1    
     4    1   84 1    
     5    2    3 2    
     6    2    4 am   BACKBONE|DICT|INTERRES
     7    4    5 1    
     8    4   85 1    
     9    5    6 1    
    10    5   80 1    
    11    5   86 1    
    12    6    7 1    
    13    6   87 1    
    14    6   88 1    
    15    7    8 1    
    16    8    9 1    
    17    8   89 1    
    18    8   90 1    
    19    9   10 ar   
    20    9   14 ar   
    21   10   11 ar   
    22   10   91 1    
    23   11   12 ar   
    24   11   58 1    
    25   12   13 ar   
    26   12   92 1    
    27   13   14 ar   
    28   13   15 1    
    29   14   93 1    
    30   15   16 1    
    31   15   94 1    
    32   15   95 1    
    33   16   17 1    
    34   17   18 1    
    35   17   96 1    
    36   17   97 1    
    37   18   19 1    
    38   18   22 1    
    39   18   98 1    
    40   19   20 am   BACKBONE|DICT|INTERRES
    41   19   21 2    
    42   20   99 1    
    43   20  100 1    
    44   22   23 am   BACKBONE|DICT|INTERRES
    45   22  101 1    
    46   23   24 2    
    47   23   25 1    
    48   25   26 1    
    49   25   27 1    
    50   25  102 1    
    51   26  103 1    
    52   26  104 1    
    53   26  105 1    
    54   27   28 am   BACKBONE|DICT|INTERRES
    55   27  106 1    
    56   28   29 2    
    57   28   30 1    
    58   30   31 1    
    59   30   32 1    
    60   30  107 1    
    61   31  108 1    
    62   31  109 1    
    63   31  110 1    
    64   32   33 am   BACKBONE|DICT|INTERRES
    65   32  111 1    
    66   33   34 2    
    67   33   35 1    
    68   35   36 1    
    69   35   37 1    
    70   35  112 1    
    71   36  113 1    
    72   36  114 1    
    73   36  115 1    
    74   37   38 am   BACKBONE|DICT|INTERRES
    75   37  116 1    
    76   38   39 2    
    77   38   40 1    
    78   40   41 1    
    79   40   42 1    
    80   40  117 1    
    81   41  118 1    
    82   41  119 1    
    83   41  120 1    
    84   42   43 am   BACKBONE|DICT|INTERRES
    85   42  121 1    
    86   43   44 2    
    87   43   45 1    
    88   45   46 1    
    89   45   47 1    
    90   45  122 1    
    91   46  123 1    
    92   46  124 1    
    93   46  125 1    
    94   47   48 am   BACKBONE|DICT|INTERRES
    95   47  126 1    
    96   48   49 2    
    97   48   50 1    
    98   50   51 1    
    99   50   52 1    
   100   50  127 1    
   101   51  128 1    
   102   51  129 1    
   103   51  130 1    
   104   52   53 am   BACKBONE|DICT|INTERRES
   105   52  131 1    
   106   53   54 2    
   107   53   55 1    
   108   55   56 1    
   109   55   59 1    
   110   55  132 1    
   111   56   57 1    
   112   56  133 1    
   113   56  134 1    
   114   57   58 1    
   115   58  135 1    
   116   58  136 1    
   117   59   60 am   BACKBONE|DICT|INTERRES
   118   59  137 1    
   119   60   61 2    
   120   60   62 1    
   121   62   63 1    
   122   62   64 1    
   123   62  138 1    
   124   63  139 1    
   125   63  140 1    
   126   63  141 1    
   127   64   65 am   BACKBONE|DICT|INTERRES
   128   64  142 1    
   129   65   66 2    
   130   65   67 1    
   131   67   68 1    
   132   67   69 1    
   133   67  143 1    
   134   68  144 1    
   135   68  145 1    
   136   68  146 1    
   137   69   70 am   BACKBONE|DICT|INTERRES
   138   69  147 1    
   139   70   71 2    
   140   70   72 1    
   141   72   73 1    
   142   72   74 1    
   143   72  148 1    
   144   73  149 1    
   145   73  150 1    
   146   73  151 1    
   147   74   75 am   BACKBONE|DICT|INTERRES
   148   74  152 1    
   149   75   76 2    
   150   75   77 1    
   151   77   78 1    
   152   77   79 1    
   153   77  153 1    
   154   78  154 1    
   155   78  155 1    
   156   78  156 1    
   157   79   80 am   BACKBONE|DICT|INTERRES
   158   79  157 1    
   159   80   81 2    
@<TRIPOS>SUBSTRUCTURE
     1 UNK         1 GROUP             0       ****    0 ROOT    
