@<TRIPOS>MOLECULE
3R207
157   159    1
SMALL
USER_CHARGES


@<TRIPOS>ATOM
      1 CA        -50.6709  -30.8583    1.6627 C.3       0 UNK        -0.1975 
      2 C         -50.8756  -30.2220    3.0301 C.2       0 UNK         0.4852 
      3 O         -51.9842  -29.7792    3.3330 O.2       0 UNK        -0.5216 
      4 N         -49.8167  -30.1860    3.8489 N.am      1 UNK        -0.4461 
      5 CA        -49.7960  -29.5836    5.1845 C.3       1 UNK         0.0864 
      6 C6        -48.9200  -30.4060    6.1707 C.3       14 UNK        -0.0898 
      7 S7        -49.7012  -32.0014    6.5827 S.3       14 UNK        -0.2598 
      8 C8        -50.4305  -31.6403    8.2151 C.3       14 UNK         0.0286 
      9 C9        -51.4567  -30.5176    8.1458 C.ar      14 UNK        -0.0844 
     10 C10       -51.1218  -29.2269    8.5703 C.ar      14 UNK        -0.0881 
     11 C11       -52.0578  -28.1920    8.4977 C.ar      14 UNK        -0.0643 
     12 C12       -53.3297  -28.4519    7.9849 C.ar      14 UNK        -0.0930 
     13 C13       -53.6919  -29.7454    7.5985 C.ar      14 UNK        -0.0827 
     14 C14       -52.7463  -30.7727    7.6688 C.ar      14 UNK        -0.1249 
     15 C15       -55.1064  -30.0288    7.1149 C.3       14 UNK         0.0141 
     16 S16       -56.3695  -29.4479    8.2964 S.3       14 UNK        -0.2313 
     17 C17       -56.3044  -30.7039    9.6249 C.3       14 UNK        -0.0915 
     18 CA        -55.5911  -30.2786   10.9475 C.3       13 UNK         0.0968 
     19 C         -54.1165  -30.7673   11.0464 C.2       13 UNK         0.5732 
     20 N         -53.1443  -29.9119   11.3350 N.am      13 UNK        -0.7310 
     21 O         -53.8558  -31.9596   10.9012 O.2       13 UNK        -0.5035 
     22 N         -55.7987  -28.8582   11.2776 N.am      13 UNK        -0.4233 
     23 C         -55.8775  -28.3566   12.5152 C.2       13 UNK         0.4989 
     24 O         -55.8409  -29.0437   13.5395 O.2       13 UNK        -0.4996 
     25 CA        -56.0830  -26.8331   12.6094 C.3       12 UNK         0.0216 
     26 CB        -57.4941  -26.4437   12.1328 C.3       12 UNK        -0.1964 
     27 N         -55.8984  -26.3387   13.9761 N.am      12 UNK        -0.4276 
     28 C         -54.7131  -26.1285   14.5595 C.2       12 UNK         0.5020 
     29 O         -53.6259  -26.2644   13.9946 O.2       12 UNK        -0.5489 
     30 CA        -54.7491  -25.7079   16.0325 C.3       11 UNK         0.0294 
     31 CB        -54.9025  -26.9392   16.9465 C.3       11 UNK        -0.2019 
     32 N         -53.5092  -25.0044   16.3441 N.am      11 UNK        -0.4493 
     33 C         -53.2996  -24.2058   17.3974 C.2       11 UNK         0.4932 
     34 O         -54.1659  -23.9350   18.2313 O.2       11 UNK        -0.5029 
     35 CA        -51.8804  -23.6199   17.5379 C.3       10 UNK         0.0280 
     36 CB        -51.5946  -23.0262   18.9337 C.3       10 UNK        -0.1976 
     37 N         -50.8473  -24.5831   17.1439 N.am      10 UNK        -0.4242 
     38 C         -50.5622  -25.7632   17.7149 C.2       10 UNK         0.5072 
     39 O         -51.0747  -26.1749   18.7566 O.2       10 UNK        -0.5224 
     40 CA        -49.5464  -26.6568   16.9812 C.3       9 UNK         0.0343 
     41 CB        -50.2842  -27.6273   16.0440 C.3       9 UNK        -0.2003 
     42 N         -48.5496  -25.9037   16.2135 N.am      9 UNK        -0.4272 
     43 C         -47.5772  -25.1580   16.7593 C.2       9 UNK         0.4988 
     44 O         -47.3866  -25.0615   17.9723 O.2       9 UNK        -0.5108 
     45 CA        -46.6663  -24.3810   15.7933 C.3       8 UNK         0.0248 
     46 CB        -45.5917  -25.3044   15.1970 C.3       8 UNK        -0.2001 
     47 N         -47.4080  -23.7191   14.7166 N.am      8 UNK        -0.4140 
     48 C         -48.2665  -22.7038   14.8970 C.2       8 UNK         0.5028 
     49 O         -48.4838  -22.1735   15.9868 O.2       8 UNK        -0.5428 
     50 CA        -49.0425  -22.2149   13.6608 C.3       7 UNK         0.0264 
     51 CB        -48.1852  -21.2593   12.8165 C.3       7 UNK        -0.1988 
     52 N         -49.5326  -23.3145   12.8255 N.am      7 UNK        -0.4454 
     53 C         -50.4172  -24.2371   13.2330 C.2       7 UNK         0.5027 
     54 O         -50.9570  -24.2174   14.3390 O.2       7 UNK        -0.5083 
     55 CA        -50.7145  -25.4053   12.2751 C.3       6 UNK         0.0844 
     56 C56       -51.8226  -25.0403   11.2581 C.3       14 UNK        -0.0967 
     57 S57       -52.6158  -26.5372   10.5945 S.3       14 UNK        -0.2604 
     58 C58       -51.7286  -26.8087    9.0321 C.3       14 UNK         0.0134 
     59 N         -49.4929  -25.8835   11.6227 N.am      6 UNK        -0.4116 
     60 C         -48.4846  -26.5021   12.2513 C.2       5 UNK         0.5034 
     61 O         -48.4859  -26.7805   13.4495 O.2       5 UNK        -0.5045 
     62 CA        -47.2375  -26.8081   11.4083 C.3       5 UNK         0.0224 
     63 CB        -47.4237  -28.1017   10.6001 C.3       5 UNK        -0.1978 
     64 N         -46.8995  -25.7008   10.5097 N.am      5 UNK        -0.4737 
     65 C         -46.4348  -24.5160   10.9360 C.2       4 UNK         0.5027 
     66 O         -46.2094  -24.2617   12.1181 O.2       4 UNK        -0.5211 
     67 CA        -46.2261  -23.4127    9.8833 C.3       4 UNK         0.0297 
     68 CB        -44.8048  -23.4893    9.3048 C.3       4 UNK        -0.1993 
     69 N         -47.1990  -23.4545    8.7902 N.am      4 UNK        -0.4486 
     70 C         -48.5293  -23.3628    8.9301 C.2       3 UNK         0.4961 
     71 O         -49.0926  -23.1670   10.0066 O.2       3 UNK        -0.5105 
     72 CA        -49.3806  -23.5813    7.6666 C.3       3 UNK         0.0299 
     73 CB        -49.7788  -22.2313    7.0510 C.3       3 UNK        -0.1972 
     74 N         -48.7380  -24.4170    6.6431 N.am      3 UNK        -0.4305 
     75 C         -48.3469  -25.6865    6.8224 C.2       2 UNK         0.5006 
     76 O         -48.4339  -26.2887    7.8951 O.2       2 UNK        -0.5106 
     77 CA        -47.6876  -26.3823    5.6235 C.3       2 UNK         0.0296 
     78 CB        -46.1585  -26.3855    5.7859 C.3       2 UNK        -0.2002 
     79 N         -48.1648  -27.7602    5.5163 N.am      2 UNK        -0.4032 
     80 C         -49.3791  -28.1030    5.0628 C.2       1 UNK         0.5000 
     81 O         -50.1629  -27.2928    4.5627 O.2       1 UNK        -0.5238 
     82 H82       -49.6515  -31.2195    1.5278 H         1 UNK         0.0889 
     83 H83       -50.8803  -30.1333    0.8766 H         1 UNK         0.0889 
     84 H84       -51.3482  -31.7027    1.5370 H         1 UNK         0.0889 
     85 H85       -48.9357  -30.5615    3.5281 H         1 UNK         0.3028 
     86 H86       -50.8126  -29.5650    5.5835 H         1 UNK         0.0864 
     87 H87       -47.9358  -30.6085    5.7445 H         1 UNK         0.0720 
     88 H88       -48.7438  -29.8620    7.1000 H         1 UNK         0.0720 
     89 H89       -49.6356  -31.3950    8.9211 H         1 UNK         0.0814 
     90 H90       -50.9075  -32.5437    8.5983 H         1 UNK         0.0814 
     91 H91       -50.1373  -29.0294    8.9684 H         1 UNK         0.1469 
     92 H92       -54.0569  -27.6531    7.9380 H         1 UNK         0.1381 
     93 H93       -53.0118  -31.7742    7.3591 H         1 UNK         0.1206 
     94 H94       -55.2555  -29.5175    6.1630 H         1 UNK         0.0813 
     95 H95       -55.2535  -31.0921    6.9193 H         1 UNK         0.0813 
     96 H96       -55.8979  -31.6354    9.2269 H         1 UNK         0.0638 
     97 H97       -57.3442  -30.9354    9.8601 H         1 UNK         0.0638 
     98 H98       -56.0878  -30.8516   11.7330 H         1 UNK         0.0568 
     99 H99       -53.3330  -28.9257   11.4219 H         1 UNK         0.3450 
    100 H100      -52.1992  -30.2511   11.3920 H         1 UNK         0.3450 
    101 H101      -55.8406  -28.2371   10.4827 H         1 UNK         0.2987 
    102 H102      -55.3493  -26.3489   11.9613 H         1 UNK         0.0766 
    103 H103      -57.6472  -25.3656   12.1872 H         1 UNK         0.0798 
    104 H104      -58.2696  -26.9233   12.7316 H         1 UNK         0.0798 
    105 H105      -57.6577  -26.7363   11.0948 H         1 UNK         0.0798 
    106 H106      -56.7342  -26.2516   14.5359 H         1 UNK         0.3198 
    107 H107      -55.5901  -25.0274   16.1820 H         1 UNK         0.0843 
    108 H108      -55.8083  -27.4977   16.7072 H         1 UNK         0.0831 
    109 H109      -54.9678  -26.6536   17.9964 H         1 UNK         0.0831 
    110 H110      -54.0596  -27.6232   16.8383 H         1 UNK         0.0831 
    111 H111      -52.7749  -25.1341   15.6541 H         1 UNK         0.3133 
    112 H112      -51.8166  -22.8043   16.8161 H         1 UNK         0.0566 
    113 H113      -50.5830  -22.6244   18.9923 H         1 UNK         0.0814 
    114 H114      -52.2814  -22.2090   19.1573 H         1 UNK         0.0814 
    115 H115      -51.7080  -23.7692   19.7235 H         1 UNK         0.0814 
    116 H116      -50.4273  -24.3951   16.2385 H         1 UNK         0.3091 
    117 H117      -49.0183  -27.2448   17.7347 H         1 UNK         0.0702 
    118 H118      -49.5928  -28.3231   15.5684 H         1 UNK         0.0785 
    119 H119      -50.8203  -27.0969   15.2555 H         1 UNK         0.0785 
    120 H120      -51.0168  -28.2211   16.5924 H         1 UNK         0.0785 
    121 H121      -48.5913  -25.9951   15.2015 H         1 UNK         0.2998 
    122 H122      -46.1593  -23.6048   16.3704 H         1 UNK         0.0697 
    123 H123      -46.0289  -26.0858   14.5747 H         1 UNK         0.0825 
    124 H124      -45.0176  -25.7955   15.9837 H         1 UNK         0.0825 
    125 H125      -44.8863  -24.7450   14.5822 H         1 UNK         0.0825 
    126 H126      -47.2254  -24.0444   13.7709 H         1 UNK         0.3029 
    127 H127      -49.9149  -21.6623   14.0167 H         1 UNK         0.0897 
    128 H128      -48.7335  -20.8939   11.9479 H         1 UNK         0.0792 
    129 H129      -47.8841  -20.3892   13.4013 H         1 UNK         0.0792 
    130 H130      -47.2751  -21.7412   12.4607 H         1 UNK         0.0792 
    131 H131      -49.1912  -23.3559   11.8674 H         1 UNK         0.3086 
    132 H132      -51.0856  -26.2200   12.9012 H         1 UNK         0.0583 
    133 H133      -52.6142  -24.4657   11.7442 H         1 UNK         0.1020 
    134 H134      -51.4447  -24.4125   10.4499 H         1 UNK         0.1020 
    135 H135      -52.0113  -26.0463    8.3051 H         1 UNK         0.0694 
    136 H136      -50.6566  -26.7097    9.1974 H         1 UNK         0.0694 
    137 H137      -49.3787  -25.6525   10.6472 H         1 UNK         0.2989 
    138 H138      -46.4024  -26.9551   12.0971 H         1 UNK         0.1055 
    139 H139      -47.6474  -28.9431   11.2573 H         1 UNK         0.0806 
    140 H140      -46.5211  -28.3552   10.0439 H         1 UNK         0.0806 
    141 H141      -48.2428  -28.0185    9.8870 H         1 UNK         0.0806 
    142 H142      -47.1178  -25.8239    9.5270 H         1 UNK         0.3061 
    143 H143      -46.3392  -22.4503   10.3854 H         1 UNK         0.0734 
    144 H144      -44.0585  -23.4390   10.0992 H         1 UNK         0.0832 
    145 H145      -44.6383  -24.4201    8.7608 H         1 UNK         0.0832 
    146 H146      -44.6062  -22.6607    8.6248 H         1 UNK         0.0832 
    147 H147      -46.8337  -23.6117    7.8628 H         1 UNK         0.3156 
    148 H148      -50.2923  -24.0941    7.9795 H         1 UNK         0.0589 
    149 H149      -48.9105  -21.6798    6.6881 H         1 UNK         0.0808 
    150 H150      -50.4682  -22.3621    6.2166 H         1 UNK         0.0808 
    151 H151      -50.2810  -21.6004    7.7862 H         1 UNK         0.0808 
    152 H152      -48.6165  -23.9977    5.7318 H         1 UNK         0.3098 
    153 H153      -47.9413  -25.8473    4.7057 H         1 UNK         0.0720 
    154 H154      -45.6714  -26.8745    4.9419 H         1 UNK         0.0791 
    155 H155      -45.8482  -26.9003    6.6965 H         1 UNK         0.0791 
    156 H156      -45.7679  -25.3684    5.8377 H         1 UNK         0.0791 
    157 H157      -47.5833  -28.4690    5.9374 H         1 UNK         0.3028 
@<TRIPOS>BOND
     1    1    2 1    
     2    1   82 1    
     3    1   83 1    
     4    1   84 1    
     5    2    3 2    
     6    2    4 am   BACKBONE|DICT|INTERRES
     7    4    5 1    
     8    4   85 1    
     9    5    6 1    
    10    5   80 1    
    11    5   86 1    
    12    6    7 1    
    13    6   87 1    
    14    6   88 1    
    15    7    8 1    
    16    8    9 1    
    17    8   89 1    
    18    8   90 1    
    19    9   10 ar   
    20    9   14 ar   
    21   10   11 ar   
    22   10   91 1    
    23   11   12 ar   
    24   11   58 1    
    25   12   13 ar   
    26   12   92 1    
    27   13   14 ar   
    28   13   15 1    
    29   14   93 1    
    30   15   16 1    
    31   15   94 1    
    32   15   95 1    
    33   16   17 1    
    34   17   18 1    
    35   17   96 1    
    36   17   97 1    
    37   18   19 1    
    38   18   22 1    
    39   18   98 1    
    40   19   20 am   BACKBONE|DICT|INTERRES
    41   19   21 2    
    42   20   99 1    
    43   20  100 1    
    44   22   23 am   BACKBONE|DICT|INTERRES
    45   22  101 1    
    46   23   24 2    
    47   23   25 1    
    48   25   26 1    
    49   25   27 1    
    50   25  102 1    
    51   26  103 1    
    52   26  104 1    
    53   26  105 1    
    54   27   28 am   BACKBONE|DICT|INTERRES
    55   27  106 1    
    56   28   29 2    
    57   28   30 1    
    58   30   31 1    
    59   30   32 1    
    60   30  107 1    
    61   31  108 1    
    62   31  109 1    
    63   31  110 1    
    64   32   33 am   BACKBONE|DICT|INTERRES
    65   32  111 1    
    66   33   34 2    
    67   33   35 1    
    68   35   36 1    
    69   35   37 1    
    70   35  112 1    
    71   36  113 1    
    72   36  114 1    
    73   36  115 1    
    74   37   38 am   BACKBONE|DICT|INTERRES
    75   37  116 1    
    76   38   39 2    
    77   38   40 1    
    78   40   41 1    
    79   40   42 1    
    80   40  117 1    
    81   41  118 1    
    82   41  119 1    
    83   41  120 1    
    84   42   43 am   BACKBONE|DICT|INTERRES
    85   42  121 1    
    86   43   44 2    
    87   43   45 1    
    88   45   46 1    
    89   45   47 1    
    90   45  122 1    
    91   46  123 1    
    92   46  124 1    
    93   46  125 1    
    94   47   48 am   BACKBONE|DICT|INTERRES
    95   47  126 1    
    96   48   49 2    
    97   48   50 1    
    98   50   51 1    
    99   50   52 1    
   100   50  127 1    
   101   51  128 1    
   102   51  129 1    
   103   51  130 1    
   104   52   53 am   BACKBONE|DICT|INTERRES
   105   52  131 1    
   106   53   54 2    
   107   53   55 1    
   108   55   56 1    
   109   55   59 1    
   110   55  132 1    
   111   56   57 1    
   112   56  133 1    
   113   56  134 1    
   114   57   58 1    
   115   58  135 1    
   116   58  136 1    
   117   59   60 am   BACKBONE|DICT|INTERRES
   118   59  137 1    
   119   60   61 2    
   120   60   62 1    
   121   62   63 1    
   122   62   64 1    
   123   62  138 1    
   124   63  139 1    
   125   63  140 1    
   126   63  141 1    
   127   64   65 am   BACKBONE|DICT|INTERRES
   128   64  142 1    
   129   65   66 2    
   130   65   67 1    
   131   67   68 1    
   132   67   69 1    
   133   67  143 1    
   134   68  144 1    
   135   68  145 1    
   136   68  146 1    
   137   69   70 am   BACKBONE|DICT|INTERRES
   138   69  147 1    
   139   70   71 2    
   140   70   72 1    
   141   72   73 1    
   142   72   74 1    
   143   72  148 1    
   144   73  149 1    
   145   73  150 1    
   146   73  151 1    
   147   74   75 am   BACKBONE|DICT|INTERRES
   148   74  152 1    
   149   75   76 2    
   150   75   77 1    
   151   77   78 1    
   152   77   79 1    
   153   77  153 1    
   154   78  154 1    
   155   78  155 1    
   156   78  156 1    
   157   79   80 am   BACKBONE|DICT|INTERRES
   158   79  157 1    
   159   80   81 2    
@<TRIPOS>SUBSTRUCTURE
     1 UNK         1 GROUP             0       ****    0 ROOT    
