@<TRIPOS>MOLECULE
3R207
157   159    1
SMALL
USER_CHARGES


@<TRIPOS>ATOM
      1 CA        -48.8589  -29.3940    0.5456 C.3       0 UNK        -0.1975 
      2 C         -49.1983  -28.5322    1.7530 C.2       0 UNK         0.4852 
      3 O         -49.7131  -27.4249    1.5893 O.2       0 UNK        -0.5216 
      4 N         -48.9240  -29.0356    2.9627 N.am      1 UNK        -0.4461 
      5 CA        -49.1361  -28.3297    4.2305 C.3       1 UNK         0.0864 
      6 C6        -49.0751  -29.2872    5.4490 C.3       14 UNK        -0.0898 
      7 S7        -50.1538  -30.7559    5.3196 S.3       14 UNK        -0.2598 
      8 C8        -51.8309  -30.0420    5.3642 C.3       14 UNK         0.0286 
      9 C9        -52.0672  -29.1601    6.5824 C.ar      14 UNK        -0.0844 
     10 C10       -52.3024  -27.7912    6.4214 C.ar      14 UNK        -0.0881 
     11 C11       -52.5225  -26.9719    7.5317 C.ar      14 UNK        -0.0643 
     12 C12       -52.5111  -27.5358    8.8113 C.ar      14 UNK        -0.0930 
     13 C13       -52.2675  -28.9007    8.9875 C.ar      14 UNK        -0.0827 
     14 C14       -52.0550  -29.7102    7.8682 C.ar      14 UNK        -0.1249 
     15 C15       -52.2006  -29.4912   10.3880 C.3       14 UNK         0.0141 
     16 S16       -53.8464  -29.9467   11.0136 S.3       14 UNK        -0.2313 
     17 C17       -53.4121  -30.5638   12.6756 C.3       14 UNK        -0.0915 
     18 CA        -54.4278  -30.1265   13.7668 C.3       13 UNK         0.0968 
     19 C         -55.6594  -31.0737   13.8202 C.2       13 UNK         0.5732 
     20 N         -56.6928  -30.7979   13.0368 N.am      13 UNK        -0.7310 
     21 O         -55.6692  -32.0729   14.5378 O.2       13 UNK        -0.5035 
     22 N         -53.7574  -29.9884   15.0684 N.am      13 UNK        -0.4233 
     23 C         -54.2892  -29.4247   16.1613 C.2       13 UNK         0.4989 
     24 O         -55.4153  -28.9269   16.1914 O.2       13 UNK        -0.4996 
     25 CA        -53.4214  -29.3918   17.4329 C.3       12 UNK         0.0216 
     26 CB        -51.9960  -29.9543   17.2415 C.3       12 UNK        -0.1964 
     27 N         -53.3138  -28.0131   17.9083 N.am      12 UNK        -0.4276 
     28 C         -53.9520  -27.4967   18.9661 C.2       12 UNK         0.5020 
     29 O         -54.7204  -28.1360   19.6864 O.2       12 UNK        -0.5489 
     30 CA        -53.6795  -26.0196   19.2917 C.3       11 UNK         0.0294 
     31 CB        -52.3314  -25.8705   20.0170 C.3       11 UNK        -0.2019 
     32 N         -53.6691  -25.1922   18.0834 N.am      11 UNK        -0.4493 
     33 C         -54.5682  -24.2402   17.7924 C.2       11 UNK         0.4932 
     34 O         -55.4993  -23.9256   18.5345 O.2       11 UNK        -0.5029 
     35 CA        -54.4098  -23.5019   16.4473 C.3       10 UNK         0.0280 
     36 CB        -53.6591  -22.1767   16.6504 C.3       10 UNK        -0.1976 
     37 N         -53.7204  -24.3042   15.4333 N.am      10 UNK        -0.4242 
     38 C         -54.2482  -25.3996   14.8644 C.2       10 UNK         0.5072 
     39 O         -55.4242  -25.7325   15.0116 O.2       10 UNK        -0.5224 
     40 CA        -53.3298  -26.3013   14.0150 C.3       9 UNK         0.0343 
     41 CB        -53.7265  -26.2383   12.5325 C.3       9 UNK        -0.2003 
     42 N         -51.8920  -26.0485   14.1445 N.am      9 UNK        -0.4272 
     43 C         -51.1732  -26.1033   15.2745 C.2       9 UNK         0.4988 
     44 O         -51.6445  -26.4167   16.3684 O.2       9 UNK        -0.5108 
     45 CA        -49.7003  -25.6671   15.1855 C.3       8 UNK         0.0248 
     46 CB        -48.8048  -26.8695   14.8510 C.3       8 UNK        -0.2001 
     47 N         -49.4658  -24.5861   14.2187 N.am      8 UNK        -0.4140 
     48 C         -50.0534  -23.3783   14.2591 C.2       8 UNK         0.5028 
     49 O         -50.8478  -23.0331   15.1339 O.2       8 UNK        -0.5428 
     50 CA        -49.7539  -22.4191   13.0971 C.3       7 UNK         0.0264 
     51 CB        -48.3552  -21.7932   13.2289 C.3       7 UNK        -0.1988 
     52 N         -49.8847  -23.1101   11.8130 N.am      7 UNK        -0.4454 
     53 C         -51.0603  -23.3579   11.2138 C.2       7 UNK         0.5027 
     54 O         -52.1326  -22.8997   11.6088 O.2       7 UNK        -0.5083 
     55 CA        -51.0597  -24.2966    9.9880 C.3       6 UNK         0.0844 
     56 C56       -51.2212  -23.5078    8.6663 C.3       14 UNK        -0.0967 
     57 S57       -51.2060  -24.5686    7.1772 S.3       14 UNK        -0.2604 
     58 C58       -52.7741  -25.4833    7.3358 C.3       14 UNK         0.0134 
     59 N         -49.9063  -25.1986    9.9634 N.am      6 UNK        -0.4116 
     60 C         -49.7164  -26.2206   10.8071 C.2       5 UNK         0.5034 
     61 O         -50.5027  -26.5261   11.7005 O.2       5 UNK        -0.5045 
     62 CA        -48.3894  -26.9802   10.6699 C.3       5 UNK         0.0224 
     63 CB        -48.5153  -28.0938    9.6180 C.3       5 UNK        -0.1978 
     64 N         -47.2767  -26.0790   10.3391 N.am      5 UNK        -0.4737 
     65 C         -46.8260  -25.1248   11.1702 C.2       4 UNK         0.5027 
     66 O         -47.3013  -24.9520   12.2937 O.2       4 UNK        -0.5211 
     67 CA        -45.7448  -24.1421   10.6751 C.3       4 UNK         0.0297 
     68 CB        -44.5894  -24.0053   11.6884 C.3       4 UNK        -0.1993 
     69 N         -45.2513  -24.3896    9.3137 N.am      4 UNK        -0.4486 
     70 C         -44.4976  -25.4092    8.8764 C.2       3 UNK         0.4961 
     71 O         -44.0493  -26.2972    9.6028 O.2       3 UNK        -0.5105 
     72 CA        -44.2381  -25.4481    7.3534 C.3       3 UNK         0.0299 
     73 CB        -43.7415  -26.8299    6.8771 C.3       3 UNK        -0.1972 
     74 N         -45.3878  -25.0211    6.5361 N.am      3 UNK        -0.4305 
     75 C         -46.6330  -25.5214    6.5823 C.2       2 UNK         0.5006 
     76 O         -47.0016  -26.3454    7.4198 O.2       2 UNK        -0.5106 
     77 CA        -47.6620  -25.0098    5.5536 C.3       2 UNK         0.0296 
     78 CB        -47.0538  -24.2151    4.3745 C.3       2 UNK        -0.2002 
     79 N         -48.5110  -26.1115    5.0796 N.am      2 UNK        -0.4032 
     80 C         -48.1005  -27.2004    4.4093 C.2       1 UNK         0.5000 
     81 O         -46.9514  -27.3615    3.9854 O.2       1 UNK        -0.5238 
     82 H82       -48.4265  -30.3512    0.8367 H         1 UNK         0.0889 
     83 H83       -48.1423  -28.8784   -0.0931 H         1 UNK         0.0889 
     84 H84       -49.7570  -29.5916   -0.0388 H         1 UNK         0.0889 
     85 H85       -48.4906  -29.9443    3.0407 H         1 UNK         0.3028 
     86 H86       -50.1283  -27.8762    4.1952 H         1 UNK         0.0864 
     87 H87       -49.3239  -28.7539    6.3685 H         1 UNK         0.0720 
     88 H88       -48.0563  -29.6543    5.5900 H         1 UNK         0.0720 
     89 H89       -52.5577  -30.8554    5.3696 H         1 UNK         0.0814 
     90 H90       -52.0054  -29.4887    4.4402 H         1 UNK         0.0814 
     91 H91       -52.3160  -27.3576    5.4309 H         1 UNK         0.1469 
     92 H92       -52.6866  -26.9170    9.6768 H         1 UNK         0.1381 
     93 H93       -51.8661  -30.7675    7.9956 H         1 UNK         0.1206 
     94 H94       -51.7394  -28.7749   11.0682 H         1 UNK         0.0813 
     95 H95       -51.5583  -30.3733   10.3930 H         1 UNK         0.0813 
     96 H96       -53.3007  -31.6493   12.6392 H         1 UNK         0.0638 
     97 H97       -52.4217  -30.1762   12.9200 H         1 UNK         0.0638 
     98 H98       -54.7946  -29.1296   13.5147 H         1 UNK         0.0568 
     99 H99       -57.4945  -31.4085   13.0481 H         1 UNK         0.3450 
    100 H100      -56.6769  -30.0005   12.4206 H         1 UNK         0.3450 
    101 H101      -52.8433  -30.4076   15.1424 H         1 UNK         0.2987 
    102 H102      -53.9284  -30.0109   18.1757 H         1 UNK         0.0766 
    103 H103      -52.0159  -31.0018   16.9379 H         1 UNK         0.0798 
    104 H104      -51.4350  -29.9107   18.1754 H         1 UNK         0.0798 
    105 H105      -51.4289  -29.3935   16.4967 H         1 UNK         0.0798 
    106 H106      -52.7029  -27.4071   17.3617 H         1 UNK         0.3198 
    107 H107      -54.4651  -25.6876   19.9740 H         1 UNK         0.0843 
    108 H108      -51.4947  -26.1762   19.3872 H         1 UNK         0.0831 
    109 H109      -52.3033  -26.4836   20.9189 H         1 UNK         0.0831 
    110 H110      -52.1599  -24.8381   20.3220 H         1 UNK         0.0831 
    111 H111      -52.9457  -25.4000   17.4018 H         1 UNK         0.3133 
    112 H112      -55.4099  -23.2704   16.0748 H         1 UNK         0.0566 
    113 H113      -53.5577  -21.6285   15.7135 H         1 UNK         0.0814 
    114 H114      -52.6585  -22.3380   17.0539 H         1 UNK         0.0814 
    115 H115      -54.1914  -21.5303   17.3494 H         1 UNK         0.0814 
    116 H116      -52.7519  -24.0660   15.2461 H         1 UNK         0.3091 
    117 H117      -53.4949  -27.3193   14.3611 H         1 UNK         0.0702 
    118 H118      -53.1758  -26.9750   11.9506 H         1 UNK         0.0785 
    119 H119      -53.5357  -25.2536   12.1061 H         1 UNK         0.0785 
    120 H120      -54.7872  -26.4547   12.3981 H         1 UNK         0.0785 
    121 H121      -51.3886  -25.8840   13.2772 H         1 UNK         0.2998 
    122 H122      -49.4119  -25.2894   16.1684 H         1 UNK         0.0697 
    123 H123      -49.0647  -27.3108   13.8890 H         1 UNK         0.0825 
    124 H124      -48.9060  -27.6514   15.6049 H         1 UNK         0.0825 
    125 H125      -47.7528  -26.5854   14.8163 H         1 UNK         0.0825 
    126 H126      -48.7890  -24.7741   13.4829 H         1 UNK         0.3029 
    127 H127      -50.4844  -21.6077   13.1379 H         1 UNK         0.0897 
    128 H128      -47.5635  -22.5419   13.2344 H         1 UNK         0.0792 
    129 H129      -48.2717  -21.2304   14.1595 H         1 UNK         0.0792 
    130 H130      -48.1538  -21.0989   12.4131 H         1 UNK         0.0792 
    131 H131      -49.0533  -23.5535   11.4507 H         1 UNK         0.3086 
    132 H132      -51.9489  -24.9140   10.1056 H         1 UNK         0.0583 
    133 H133      -52.1504  -22.9341    8.6737 H         1 UNK         0.1020 
    134 H134      -50.4186  -22.7754    8.5600 H         1 UNK         0.1020 
    135 H135      -53.3739  -25.0858    8.1556 H         1 UNK         0.0694 
    136 H136      -53.3636  -25.3263    6.4313 H         1 UNK         0.0694 
    137 H137      -49.2216  -25.0402    9.2391 H         1 UNK         0.2989 
    138 H138      -48.1671  -27.4447   11.6326 H         1 UNK         0.1055 
    139 H139      -48.8606  -27.7100    8.6572 H         1 UNK         0.0806 
    140 H140      -47.5643  -28.6009    9.4552 H         1 UNK         0.0806 
    141 H141      -49.2357  -28.8477    9.9370 H         1 UNK         0.0806 
    142 H142      -46.8824  -26.1640    9.4061 H         1 UNK         0.3061 
    143 H143      -46.2407  -23.1714   10.6276 H         1 UNK         0.0734 
    144 H144      -44.0849  -24.9557   11.8631 H         1 UNK         0.0832 
    145 H145      -43.8448  -23.2854   11.3490 H         1 UNK         0.0832 
    146 H146      -44.9575  -23.6569   12.6543 H         1 UNK         0.0832 
    147 H147      -45.5668  -23.7291    8.6165 H         1 UNK         0.3156 
    148 H148      -43.4409  -24.7277    7.1646 H         1 UNK         0.0589 
    149 H149      -43.5341  -26.8302    5.8071 H         1 UNK         0.0808 
    150 H150      -42.8187  -27.1140    7.3844 H         1 UNK         0.0808 
    151 H151      -44.4769  -27.6110    7.0747 H         1 UNK         0.0808 
    152 H152      -45.1873  -24.3296    5.8266 H         1 UNK         0.3098 
    153 H153      -48.3203  -24.3328    6.0992 H         1 UNK         0.0720 
    154 H154      -46.5837  -23.2928    4.7174 H         1 UNK         0.0791 
    155 H155      -47.8253  -23.9275    3.6601 H         1 UNK         0.0791 
    156 H156      -46.3027  -24.7901    3.8316 H         1 UNK         0.0791 
    157 H157      -49.4618  -26.0899    5.4217 H         1 UNK         0.3028 
@<TRIPOS>BOND
     1    1    2 1    
     2    1   82 1    
     3    1   83 1    
     4    1   84 1    
     5    2    3 2    
     6    2    4 am   BACKBONE|DICT|INTERRES
     7    4    5 1    
     8    4   85 1    
     9    5    6 1    
    10    5   80 1    
    11    5   86 1    
    12    6    7 1    
    13    6   87 1    
    14    6   88 1    
    15    7    8 1    
    16    8    9 1    
    17    8   89 1    
    18    8   90 1    
    19    9   10 ar   
    20    9   14 ar   
    21   10   11 ar   
    22   10   91 1    
    23   11   12 ar   
    24   11   58 1    
    25   12   13 ar   
    26   12   92 1    
    27   13   14 ar   
    28   13   15 1    
    29   14   93 1    
    30   15   16 1    
    31   15   94 1    
    32   15   95 1    
    33   16   17 1    
    34   17   18 1    
    35   17   96 1    
    36   17   97 1    
    37   18   19 1    
    38   18   22 1    
    39   18   98 1    
    40   19   20 am   BACKBONE|DICT|INTERRES
    41   19   21 2    
    42   20   99 1    
    43   20  100 1    
    44   22   23 am   BACKBONE|DICT|INTERRES
    45   22  101 1    
    46   23   24 2    
    47   23   25 1    
    48   25   26 1    
    49   25   27 1    
    50   25  102 1    
    51   26  103 1    
    52   26  104 1    
    53   26  105 1    
    54   27   28 am   BACKBONE|DICT|INTERRES
    55   27  106 1    
    56   28   29 2    
    57   28   30 1    
    58   30   31 1    
    59   30   32 1    
    60   30  107 1    
    61   31  108 1    
    62   31  109 1    
    63   31  110 1    
    64   32   33 am   BACKBONE|DICT|INTERRES
    65   32  111 1    
    66   33   34 2    
    67   33   35 1    
    68   35   36 1    
    69   35   37 1    
    70   35  112 1    
    71   36  113 1    
    72   36  114 1    
    73   36  115 1    
    74   37   38 am   BACKBONE|DICT|INTERRES
    75   37  116 1    
    76   38   39 2    
    77   38   40 1    
    78   40   41 1    
    79   40   42 1    
    80   40  117 1    
    81   41  118 1    
    82   41  119 1    
    83   41  120 1    
    84   42   43 am   BACKBONE|DICT|INTERRES
    85   42  121 1    
    86   43   44 2    
    87   43   45 1    
    88   45   46 1    
    89   45   47 1    
    90   45  122 1    
    91   46  123 1    
    92   46  124 1    
    93   46  125 1    
    94   47   48 am   BACKBONE|DICT|INTERRES
    95   47  126 1    
    96   48   49 2    
    97   48   50 1    
    98   50   51 1    
    99   50   52 1    
   100   50  127 1    
   101   51  128 1    
   102   51  129 1    
   103   51  130 1    
   104   52   53 am   BACKBONE|DICT|INTERRES
   105   52  131 1    
   106   53   54 2    
   107   53   55 1    
   108   55   56 1    
   109   55   59 1    
   110   55  132 1    
   111   56   57 1    
   112   56  133 1    
   113   56  134 1    
   114   57   58 1    
   115   58  135 1    
   116   58  136 1    
   117   59   60 am   BACKBONE|DICT|INTERRES
   118   59  137 1    
   119   60   61 2    
   120   60   62 1    
   121   62   63 1    
   122   62   64 1    
   123   62  138 1    
   124   63  139 1    
   125   63  140 1    
   126   63  141 1    
   127   64   65 am   BACKBONE|DICT|INTERRES
   128   64  142 1    
   129   65   66 2    
   130   65   67 1    
   131   67   68 1    
   132   67   69 1    
   133   67  143 1    
   134   68  144 1    
   135   68  145 1    
   136   68  146 1    
   137   69   70 am   BACKBONE|DICT|INTERRES
   138   69  147 1    
   139   70   71 2    
   140   70   72 1    
   141   72   73 1    
   142   72   74 1    
   143   72  148 1    
   144   73  149 1    
   145   73  150 1    
   146   73  151 1    
   147   74   75 am   BACKBONE|DICT|INTERRES
   148   74  152 1    
   149   75   76 2    
   150   75   77 1    
   151   77   78 1    
   152   77   79 1    
   153   77  153 1    
   154   78  154 1    
   155   78  155 1    
   156   78  156 1    
   157   79   80 am   BACKBONE|DICT|INTERRES
   158   79  157 1    
   159   80   81 2    
@<TRIPOS>SUBSTRUCTURE
     1 UNK         1 GROUP             0       ****    0 ROOT    
