@<TRIPOS>MOLECULE
3R207
157   159    1
SMALL
USER_CHARGES


@<TRIPOS>ATOM
      1 CA        -46.5774  -27.3470    2.6269 C.3       0 UNK        -0.1975 
      2 C         -47.2439  -27.1529    3.9799 C.2       0 UNK         0.4852 
      3 O         -46.5582  -27.1683    5.0025 O.2       0 UNK        -0.5216 
      4 N         -48.5693  -26.9462    3.9907 N.am      1 UNK        -0.4461 
      5 CA        -49.4212  -26.7986    5.1829 C.3       1 UNK         0.0864 
      6 C6        -49.5921  -28.1249    5.9704 C.3       14 UNK        -0.0898 
      7 S7        -50.2562  -29.4822    4.9419 S.3       14 UNK        -0.2598 
      8 C8        -51.9467  -29.6850    5.6095 C.3       14 UNK         0.0286 
      9 C9        -52.0435  -30.1180    7.0756 C.ar      14 UNK        -0.0844 
     10 C10       -50.9549  -30.6424    7.7864 C.ar      14 UNK        -0.0881 
     11 C11       -51.0774  -30.9683    9.1386 C.ar      14 UNK        -0.0643 
     12 C12       -52.3164  -30.8352    9.7722 C.ar      14 UNK        -0.0930 
     13 C13       -53.4066  -30.2998    9.0845 C.ar      14 UNK        -0.0827 
     14 C14       -53.2655  -29.9531    7.7371 C.ar      14 UNK        -0.1249 
     15 C15       -54.7170  -30.0397    9.8122 C.3       14 UNK         0.0141 
     16 S16       -54.6022  -28.5320   10.8331 S.3       14 UNK        -0.2313 
     17 C17       -54.4008  -29.2002   12.5229 C.3       14 UNK        -0.0915 
     18 CA        -55.6602  -28.9271   13.3927 C.3       13 UNK         0.0968 
     19 C         -55.6700  -29.7407   14.7200 C.2       13 UNK         0.5732 
     20 N         -56.0683  -29.1722   15.8539 N.am      13 UNK        -0.7310 
     21 O         -55.3411  -30.9245   14.7218 O.2       13 UNK        -0.5035 
     22 N         -55.8415  -27.4869   13.6219 N.am      13 UNK        -0.4233 
     23 C         -56.9318  -26.7749   13.3164 C.2       13 UNK         0.4989 
     24 O         -57.9180  -27.2451   12.7461 O.2       13 UNK        -0.4996 
     25 CA        -56.9199  -25.2799   13.7040 C.3       12 UNK         0.0216 
     26 CB        -58.3383  -24.7113   13.9234 C.3       12 UNK        -0.1964 
     27 N         -56.0543  -24.9630   14.8479 N.am      12 UNK        -0.4276 
     28 C         -56.1512  -25.4396   16.0973 C.2       12 UNK         0.5020 
     29 O         -56.9962  -26.2569   16.4710 O.2       12 UNK        -0.5489 
     30 CA        -55.0733  -24.9560   17.0842 C.3       11 UNK         0.0294 
     31 CB        -55.7142  -24.4149   18.3738 C.3       11 UNK        -0.2019 
     32 N         -54.0830  -25.9822   17.4327 N.am      11 UNK        -0.4493 
     33 C         -53.4361  -26.7876   16.5791 C.2       11 UNK         0.4932 
     34 O         -53.6655  -26.8536   15.3713 O.2       11 UNK        -0.5029 
     35 CA        -52.2940  -27.6218   17.1610 C.3       10 UNK         0.0280 
     36 CB        -52.4080  -29.0997   16.7493 C.3       10 UNK        -0.1976 
     37 N         -51.0733  -27.0573   16.6024 N.am      10 UNK        -0.4242 
     38 C         -50.0535  -26.5414   17.2955 C.2       10 UNK         0.5072 
     39 O         -49.9477  -26.6060   18.5214 O.2       10 UNK        -0.5224 
     40 CA        -48.9797  -25.7971   16.4811 C.3       9 UNK         0.0343 
     41 CB        -48.0349  -26.7883   15.7824 C.3       9 UNK        -0.2003 
     42 N         -49.5477  -24.8798   15.4880 N.am      9 UNK        -0.4272 
     43 C         -50.2799  -23.7913   15.7758 C.2       9 UNK         0.4988 
     44 O         -50.5340  -23.4161   16.9206 O.2       9 UNK        -0.5108 
     45 CA        -50.8240  -22.9824   14.5888 C.3       8 UNK         0.0248 
     46 CB        -49.7465  -22.0359   14.0336 C.3       8 UNK        -0.2001 
     47 N         -51.2950  -23.8716   13.5284 N.am      8 UNK        -0.4140 
     48 C         -52.5559  -24.3120   13.4132 C.2       8 UNK         0.5028 
     49 O         -53.4952  -23.8997   14.0980 O.2       8 UNK        -0.5428 
     50 CA        -52.8361  -25.3853   12.3446 C.3       7 UNK         0.0264 
     51 CB        -53.5424  -24.7615   11.1304 C.3       7 UNK        -0.1988 
     52 N         -51.6502  -26.1155   11.8859 N.am      7 UNK        -0.4454 
     53 C         -50.9216  -26.9562   12.6369 C.2       7 UNK         0.5027 
     54 O         -51.1393  -27.1898   13.8217 O.2       7 UNK        -0.5083 
     55 CA        -49.7107  -27.6243   11.9599 C.3       6 UNK         0.0844 
     56 C56       -50.2043  -28.8657   11.1907 C.3       14 UNK        -0.0967 
     57 S57       -48.8885  -29.8732   10.4292 S.3       14 UNK        -0.2604 
     58 C58       -49.8447  -31.3548    9.9435 C.3       14 UNK         0.0134 
     59 N         -48.9433  -26.6997   11.1179 N.am      6 UNK        -0.4116 
     60 C         -48.4421  -25.5172   11.5072 C.2       5 UNK         0.5034 
     61 O         -48.6253  -25.0325   12.6274 O.2       5 UNK        -0.5045 
     62 CA        -47.6359  -24.7343   10.4551 C.3       5 UNK         0.0224 
     63 CB        -46.6984  -23.6799   11.0799 C.3       5 UNK        -0.1978 
     64 N         -46.9077  -25.5985    9.5182 N.am      5 UNK        -0.4737 
     65 C         -45.9112  -26.4551    9.7938 C.2       4 UNK         0.5027 
     66 O         -45.4724  -26.6722   10.9231 O.2       4 UNK        -0.5211 
     67 CA        -45.2890  -27.1851    8.5906 C.3       4 UNK         0.0297 
     68 CB        -46.0939  -28.4499    8.2574 C.3       4 UNK        -0.1993 
     69 N         -45.2070  -26.3260    7.4059 N.am      4 UNK        -0.4486 
     70 C         -44.3834  -25.2727    7.2938 C.2       3 UNK         0.4961 
     71 O         -43.5232  -24.9803    8.1251 O.2       3 UNK        -0.5105 
     72 CA        -44.5694  -24.3747    6.0607 C.3       3 UNK         0.0299 
     73 CB        -43.8689  -24.9699    4.8279 C.3       3 UNK        -0.1972 
     74 N         -45.9864  -24.1385    5.7737 N.am      3 UNK        -0.4305 
     75 C         -46.7706  -23.3098    6.4804 C.2       2 UNK         0.5006 
     76 O         -46.3636  -22.6070    7.4054 O.2       2 UNK        -0.5106 
     77 CA        -48.2610  -23.2397    6.0986 C.3       2 UNK         0.0296 
     78 CB        -48.5223  -22.0349    5.1798 C.3       2 UNK        -0.2002 
     79 N         -48.7649  -24.4557    5.4543 N.am      2 UNK        -0.4032 
     80 C         -48.9514  -25.6279    6.0783 C.2       1 UNK         0.5000 
     81 O         -48.7208  -25.8026    7.2777 O.2       1 UNK        -0.5238 
     82 H82       -47.2983  -27.3272    1.8098 H         1 UNK         0.0889 
     83 H83       -46.0615  -28.3063    2.6006 H         1 UNK         0.0889 
     84 H84       -45.8436  -26.5605    2.4532 H         1 UNK         0.0889 
     85 H85       -49.0661  -26.9425    3.1105 H         1 UNK         0.3028 
     86 H86       -50.4093  -26.5106    4.8204 H         1 UNK         0.0864 
     87 H87       -48.6337  -28.4571    6.3684 H         1 UNK         0.0720 
     88 H88       -50.2420  -27.9728    6.8339 H         1 UNK         0.0720 
     89 H89       -52.4680  -30.4237    4.9994 H         1 UNK         0.0814 
     90 H90       -52.4796  -28.7425    5.4733 H         1 UNK         0.0814 
     91 H91       -49.9896  -30.7539    7.3144 H         1 UNK         0.1469 
     92 H92       -52.4140  -31.0756   10.8218 H         1 UNK         0.1381 
     93 H93       -54.1069  -29.5291    7.2055 H         1 UNK         0.1206 
     94 H94       -54.9941  -30.9039   10.4170 H         1 UNK         0.0813 
     95 H95       -55.5263  -29.9074    9.0926 H         1 UNK         0.0813 
     96 H96       -53.5201  -28.7427   12.9769 H         1 UNK         0.0638 
     97 H97       -54.1859  -30.2676   12.4615 H         1 UNK         0.0638 
     98 H98       -56.5177  -29.3161   12.8417 H         1 UNK         0.0568 
     99 H99       -56.3680  -28.2049   15.8792 H         1 UNK         0.3450 
    100 H100      -56.0875  -29.7241   16.6957 H         1 UNK         0.3450 
    101 H101      -55.0953  -27.0504   14.1591 H         1 UNK         0.2987 
    102 H102      -56.4864  -24.7583   12.8499 H         1 UNK         0.0766 
    103 H103      -58.3065  -23.6509   14.1738 H         1 UNK         0.0798 
    104 H104      -58.8613  -25.2304   14.7274 H         1 UNK         0.0798 
    105 H105      -58.9460  -24.8106   13.0231 H         1 UNK         0.0798 
    106 H106      -55.2306  -24.4021   14.6270 H         1 UNK         0.3198 
    107 H107      -54.5247  -24.1342   16.6193 H         1 UNK         0.0843 
    108 H108      -56.2226  -25.2023   18.9320 H         1 UNK         0.0831 
    109 H109      -56.4551  -23.6466   18.1481 H         1 UNK         0.0831 
    110 H110      -54.9708  -23.9622   19.0301 H         1 UNK         0.0831 
    111 H111      -53.8160  -26.0195   18.4056 H         1 UNK         0.3133 
    112 H112      -52.3029  -27.5530   18.2507 H         1 UNK         0.0566 
    113 H113      -52.4101  -29.2200   15.6646 H         1 UNK         0.0814 
    114 H114      -51.5794  -29.6851   17.1474 H         1 UNK         0.0814 
    115 H115      -53.3311  -29.5393   17.1282 H         1 UNK         0.0814 
    116 H116      -51.0839  -26.9583   15.5856 H         1 UNK         0.3091 
    117 H117      -48.3884  -25.2003   17.1787 H         1 UNK         0.0702 
    118 H118      -47.2437  -26.2691   15.2409 H         1 UNK         0.0785 
    119 H119      -48.5670  -27.4205   15.0715 H         1 UNK         0.0785 
    120 H120      -47.5552  -27.4463   16.5082 H         1 UNK         0.0785 
    121 H121      -49.3445  -25.0840   14.5153 H         1 UNK         0.2998 
    122 H122      -51.6527  -22.3695   14.9504 H         1 UNK         0.0697 
    123 H123      -48.8683  -22.5769   13.6802 H         1 UNK         0.0825 
    124 H124      -49.4101  -21.3387   14.8020 H         1 UNK         0.0825 
    125 H125      -50.1305  -21.4424   13.2038 H         1 UNK         0.0825 
    126 H126      -50.5833  -24.2782   12.9340 H         1 UNK         0.3029 
    127 H127      -53.5124  -26.1129   12.7951 H         1 UNK         0.0897 
    128 H128      -53.8420  -25.5232   10.4103 H         1 UNK         0.0792 
    129 H129      -52.9028  -24.0433   10.6160 H         1 UNK         0.0792 
    130 H130      -54.4473  -24.2327   11.4326 H         1 UNK         0.0792 
    131 H131      -51.3855  -25.9841   10.9205 H         1 UNK         0.3086 
    132 H132      -49.0374  -27.9603   12.7505 H         1 UNK         0.0583 
    133 H133      -50.7705  -29.5162   11.8613 H         1 UNK         0.1020 
    134 H134      -50.8946  -28.5565   10.4029 H         1 UNK         0.1020 
    135 H135      -49.2075  -32.0183    9.3570 H         1 UNK         0.0694 
    136 H136      -50.1295  -31.9104   10.8383 H         1 UNK         0.0694 
    137 H137      -48.7303  -27.0206   10.1843 H         1 UNK         0.2989 
    138 H138      -48.3733  -24.1991    9.8546 H         1 UNK         0.1055 
    139 H139      -47.2630  -22.9427   11.6517 H         1 UNK         0.0806 
    140 H140      -46.1459  -23.1383   10.3118 H         1 UNK         0.0806 
    141 H141      -45.9750  -24.1324   11.7588 H         1 UNK         0.0806 
    142 H142      -47.2510  -25.5726    8.5613 H         1 UNK         0.3061 
    143 H143      -44.2750  -27.4857    8.8627 H         1 UNK         0.0734 
    144 H144      -47.1391  -28.2166    8.0571 H         1 UNK         0.0832 
    145 H145      -46.0741  -29.1526    9.0914 H         1 UNK         0.0832 
    146 H146      -45.6902  -28.9654    7.3858 H         1 UNK         0.0832 
    147 H147      -45.8348  -26.5412    6.6333 H         1 UNK         0.3156 
    148 H148      -44.0996  -23.4120    6.2745 H         1 UNK         0.0589 
    149 H149      -44.2577  -25.9545    4.5690 H         1 UNK         0.0808 
    150 H150      -43.9802  -24.3242    3.9568 H         1 UNK         0.0808 
    151 H151      -42.7997  -25.0846    5.0105 H         1 UNK         0.0808 
    152 H152      -46.4063  -24.7087    5.0545 H         1 UNK         0.3098 
    153 H153      -48.8247  -23.0906    7.0223 H         1 UNK         0.0720 
    154 H154      -49.5857  -21.9193    4.9687 H         1 UNK         0.0791 
    155 H155      -47.9978  -22.1299    4.2281 H         1 UNK         0.0791 
    156 H156      -48.1848  -21.1081    5.6463 H         1 UNK         0.0791 
    157 H157      -48.9635  -24.3994    4.4655 H         1 UNK         0.3028 
@<TRIPOS>BOND
     1    1    2 1    
     2    1   82 1    
     3    1   83 1    
     4    1   84 1    
     5    2    3 2    
     6    2    4 am   BACKBONE|DICT|INTERRES
     7    4    5 1    
     8    4   85 1    
     9    5    6 1    
    10    5   80 1    
    11    5   86 1    
    12    6    7 1    
    13    6   87 1    
    14    6   88 1    
    15    7    8 1    
    16    8    9 1    
    17    8   89 1    
    18    8   90 1    
    19    9   10 ar   
    20    9   14 ar   
    21   10   11 ar   
    22   10   91 1    
    23   11   12 ar   
    24   11   58 1    
    25   12   13 ar   
    26   12   92 1    
    27   13   14 ar   
    28   13   15 1    
    29   14   93 1    
    30   15   16 1    
    31   15   94 1    
    32   15   95 1    
    33   16   17 1    
    34   17   18 1    
    35   17   96 1    
    36   17   97 1    
    37   18   19 1    
    38   18   22 1    
    39   18   98 1    
    40   19   20 am   BACKBONE|DICT|INTERRES
    41   19   21 2    
    42   20   99 1    
    43   20  100 1    
    44   22   23 am   BACKBONE|DICT|INTERRES
    45   22  101 1    
    46   23   24 2    
    47   23   25 1    
    48   25   26 1    
    49   25   27 1    
    50   25  102 1    
    51   26  103 1    
    52   26  104 1    
    53   26  105 1    
    54   27   28 am   BACKBONE|DICT|INTERRES
    55   27  106 1    
    56   28   29 2    
    57   28   30 1    
    58   30   31 1    
    59   30   32 1    
    60   30  107 1    
    61   31  108 1    
    62   31  109 1    
    63   31  110 1    
    64   32   33 am   BACKBONE|DICT|INTERRES
    65   32  111 1    
    66   33   34 2    
    67   33   35 1    
    68   35   36 1    
    69   35   37 1    
    70   35  112 1    
    71   36  113 1    
    72   36  114 1    
    73   36  115 1    
    74   37   38 am   BACKBONE|DICT|INTERRES
    75   37  116 1    
    76   38   39 2    
    77   38   40 1    
    78   40   41 1    
    79   40   42 1    
    80   40  117 1    
    81   41  118 1    
    82   41  119 1    
    83   41  120 1    
    84   42   43 am   BACKBONE|DICT|INTERRES
    85   42  121 1    
    86   43   44 2    
    87   43   45 1    
    88   45   46 1    
    89   45   47 1    
    90   45  122 1    
    91   46  123 1    
    92   46  124 1    
    93   46  125 1    
    94   47   48 am   BACKBONE|DICT|INTERRES
    95   47  126 1    
    96   48   49 2    
    97   48   50 1    
    98   50   51 1    
    99   50   52 1    
   100   50  127 1    
   101   51  128 1    
   102   51  129 1    
   103   51  130 1    
   104   52   53 am   BACKBONE|DICT|INTERRES
   105   52  131 1    
   106   53   54 2    
   107   53   55 1    
   108   55   56 1    
   109   55   59 1    
   110   55  132 1    
   111   56   57 1    
   112   56  133 1    
   113   56  134 1    
   114   57   58 1    
   115   58  135 1    
   116   58  136 1    
   117   59   60 am   BACKBONE|DICT|INTERRES
   118   59  137 1    
   119   60   61 2    
   120   60   62 1    
   121   62   63 1    
   122   62   64 1    
   123   62  138 1    
   124   63  139 1    
   125   63  140 1    
   126   63  141 1    
   127   64   65 am   BACKBONE|DICT|INTERRES
   128   64  142 1    
   129   65   66 2    
   130   65   67 1    
   131   67   68 1    
   132   67   69 1    
   133   67  143 1    
   134   68  144 1    
   135   68  145 1    
   136   68  146 1    
   137   69   70 am   BACKBONE|DICT|INTERRES
   138   69  147 1    
   139   70   71 2    
   140   70   72 1    
   141   72   73 1    
   142   72   74 1    
   143   72  148 1    
   144   73  149 1    
   145   73  150 1    
   146   73  151 1    
   147   74   75 am   BACKBONE|DICT|INTERRES
   148   74  152 1    
   149   75   76 2    
   150   75   77 1    
   151   77   78 1    
   152   77   79 1    
   153   77  153 1    
   154   78  154 1    
   155   78  155 1    
   156   78  156 1    
   157   79   80 am   BACKBONE|DICT|INTERRES
   158   79  157 1    
   159   80   81 2    
@<TRIPOS>SUBSTRUCTURE
     1 UNK         1 GROUP             0       ****    0 ROOT    
