@<TRIPOS>MOLECULE
3R207
157   159    1
SMALL
USER_CHARGES


@<TRIPOS>ATOM
      1 CA        -44.4771  -27.9983    9.0485 C.3       0 UNK        -0.1975 
      2 C         -45.7486  -28.7830    8.7605 C.2       0 UNK         0.4852 
      3 O         -45.8235  -29.9677    9.0867 O.2       0 UNK        -0.5216 
      4 N         -46.7357  -28.1333    8.1355 N.am      1 UNK        -0.4461 
      5 CA        -48.0134  -28.7044    7.7124 C.3       1 UNK         0.0864 
      6 C6        -49.1796  -28.1463    8.5748 C.3       14 UNK        -0.0898 
      7 S7        -50.5912  -29.2959    8.6469 S.3       14 UNK        -0.2598 
      8 C8        -51.8820  -28.3658    7.7591 C.3       14 UNK         0.0286 
      9 C9        -52.4949  -27.2595    8.6079 C.ar      14 UNK        -0.0844 
     10 C10       -52.3830  -25.9181    8.2245 C.ar      14 UNK        -0.0881 
     11 C11       -53.0049  -24.9128    8.9737 C.ar      14 UNK        -0.0643 
     12 C12       -53.7317  -25.2568   10.1164 C.ar      14 UNK        -0.0930 
     13 C13       -53.8398  -26.5905   10.5150 C.ar      14 UNK        -0.0827 
     14 C14       -53.2200  -27.5869    9.7571 C.ar      14 UNK        -0.1249 
     15 C15       -54.6171  -26.9422   11.7722 C.3       14 UNK         0.0141 
     16 S16       -56.4057  -27.0762   11.4509 S.3       14 UNK        -0.2313 
     17 C17       -56.5262  -28.7458   10.7147 C.3       14 UNK        -0.0915 
     18 CA        -57.1242  -29.8062   11.6789 C.3       13 UNK         0.0968 
     19 C         -57.1959  -31.1990   10.9875 C.2       13 UNK         0.5732 
     20 N         -56.4463  -32.2022   11.4285 N.am      13 UNK        -0.7310 
     21 O         -57.9509  -31.3712   10.0334 O.2       13 UNK        -0.5035 
     22 N         -56.4501  -29.7819   12.9858 N.am      13 UNK        -0.4233 
     23 C         -56.8996  -30.3415   14.1147 C.2       13 UNK         0.4989 
     24 O         -57.8994  -31.0566   14.1872 O.2       13 UNK        -0.4996 
     25 CA        -56.1074  -30.0080   15.3903 C.3       12 UNK         0.0216 
     26 CB        -54.9424  -30.9925   15.5798 C.3       12 UNK        -0.1964 
     27 N         -55.5963  -28.6309   15.3960 N.am      12 UNK        -0.4276 
     28 C         -56.3726  -27.5368   15.4916 C.2       12 UNK         0.5020 
     29 O         -57.5999  -27.5892   15.5926 O.2       12 UNK        -0.5489 
     30 CA        -55.6780  -26.1555   15.4645 C.3       11 UNK         0.0294 
     31 CB        -56.4652  -25.0794   16.2434 C.3       11 UNK        -0.2019 
     32 N         -54.2737  -26.1897   15.8943 N.am      11 UNK        -0.4493 
     33 C         -53.8092  -26.5859   17.0890 C.2       11 UNK         0.4932 
     34 O         -54.5333  -26.8839   18.0402 O.2       11 UNK        -0.5029 
     35 CA        -52.2795  -26.6889   17.2429 C.3       10 UNK         0.0280 
     36 CB        -51.8731  -27.7733   18.2628 C.3       10 UNK        -0.1976 
     37 N         -51.5307  -26.8855   15.9932 N.am      10 UNK        -0.4242 
     38 C         -51.6639  -27.8729   15.0899 C.2       10 UNK         0.5072 
     39 O         -52.6106  -28.6622   15.0811 O.2       10 UNK        -0.5224 
     40 CA        -50.5660  -28.0132   14.0105 C.3       9 UNK         0.0343 
     41 CB        -51.1311  -27.7696   12.6029 C.3       9 UNK        -0.2003 
     42 N         -49.4138  -27.1322   14.2216 N.am      9 UNK        -0.4272 
     43 C         -48.4942  -27.2821   15.1866 C.2       9 UNK         0.4988 
     44 O         -48.4389  -28.2553   15.9383 O.2       9 UNK        -0.5108 
     45 CA        -47.5063  -26.1199   15.3842 C.3       8 UNK         0.0248 
     46 CB        -46.2193  -26.3577   14.5783 C.3       8 UNK        -0.2001 
     47 N         -48.0938  -24.8215   15.0290 N.am      8 UNK        -0.4140 
     48 C         -49.0530  -24.2068   15.7396 C.2       8 UNK         0.5028 
     49 O         -49.5179  -24.6588   16.7852 O.2       8 UNK        -0.5428 
     50 CA        -49.6229  -22.8937   15.1755 C.3       7 UNK         0.0264 
     51 CB        -48.7470  -21.7009   15.5907 C.3       7 UNK        -0.1988 
     52 N         -49.7619  -22.9168   13.7182 N.am      7 UNK        -0.4454 
     53 C         -50.6564  -23.6595   13.0473 C.2       7 UNK         0.5027 
     54 O         -51.5214  -24.3440   13.5956 O.2       7 UNK        -0.5083 
     55 CA        -50.5333  -23.6753   11.5076 C.3       6 UNK         0.0844 
     56 C56       -51.4848  -22.6436   10.8536 C.3       14 UNK        -0.0967 
     57 S57       -51.3688  -22.6623    9.0270 S.3       14 UNK        -0.2604 
     58 C58       -52.9281  -23.4582    8.5328 C.3       14 UNK         0.0134 
     59 N         -49.1520  -23.4952   11.0480 N.am      6 UNK        -0.4116 
     60 C         -48.1287  -24.3230   11.2838 C.2       5 UNK         0.5034 
     61 O         -48.2119  -25.3102   12.0160 O.2       5 UNK        -0.5045 
     62 CA        -46.8050  -23.9838   10.5709 C.3       5 UNK         0.0224 
     63 CB        -45.7233  -25.0545   10.7965 C.3       5 UNK        -0.1978 
     64 N         -47.0168  -23.8242    9.1310 N.am      5 UNK        -0.4737 
     65 C         -47.4740  -22.7332    8.5101 C.2       4 UNK         0.5027 
     66 O         -47.6936  -21.6760    9.1034 O.2       4 UNK        -0.5211 
     67 CA        -47.7892  -22.8640    7.0021 C.3       4 UNK         0.0297 
     68 CB        -48.1985  -21.5196    6.3716 C.3       4 UNK        -0.1993 
     69 N         -46.7229  -23.4644    6.1867 N.am      4 UNK        -0.4486 
     70 C         -46.3352  -24.7453    6.2120 C.2       3 UNK         0.4961 
     71 O         -46.7285  -25.5666    7.0447 O.2       3 UNK        -0.5105 
     72 CA        -45.3189  -25.1922    5.1509 C.3       3 UNK         0.0299 
     73 CB        -43.8862  -25.0599    5.6912 C.3       3 UNK        -0.1972 
     74 N         -45.5805  -26.5922    4.8161 N.am      3 UNK        -0.4305 
     75 C         -46.5021  -27.0047    3.9338 C.2       2 UNK         0.5006 
     76 O         -47.0479  -26.2703    3.1094 O.2       2 UNK        -0.5106 
     77 CA        -46.9234  -28.4827    4.0363 C.3       2 UNK         0.0296 
     78 CB        -45.8777  -29.4033    3.3856 C.3       2 UNK        -0.2002 
     79 N         -47.1389  -28.8791    5.4328 N.am      2 UNK        -0.4032 
     80 C         -48.1471  -28.4308    6.2000 C.2       1 UNK         0.5000 
     81 O         -49.0938  -27.7773    5.7579 O.2       1 UNK        -0.5238 
     82 H82       -43.6192  -28.4932    8.5943 H         1 UNK         0.0889 
     83 H83       -44.3073  -27.9404   10.1232 H         1 UNK         0.0889 
     84 H84       -44.5279  -26.9828    8.6562 H         1 UNK         0.0889 
     85 H85       -46.6133  -27.1611    7.8521 H         1 UNK         0.3028 
     86 H86       -47.9836  -29.7902    7.8279 H         1 UNK         0.0864 
     87 H87       -48.8460  -28.0158    9.6058 H         1 UNK         0.0720 
     88 H88       -49.4944  -27.1529    8.2490 H         1 UNK         0.0720 
     89 H89       -52.6724  -29.0603    7.4713 H         1 UNK         0.0814 
     90 H90       -51.4775  -27.9685    6.8278 H         1 UNK         0.0814 
     91 H91       -51.8276  -25.6550    7.3344 H         1 UNK         0.1469 
     92 H92       -54.2224  -24.4868   10.6956 H         1 UNK         0.1381 
     93 H93       -53.2982  -28.6225   10.0572 H         1 UNK         0.1206 
     94 H94       -54.4446  -26.1659   12.5174 H         1 UNK         0.0813 
     95 H95       -54.2452  -27.8684   12.2110 H         1 UNK         0.0813 
     96 H96       -55.5439  -29.0647   10.3671 H         1 UNK         0.0638 
     97 H97       -57.1448  -28.6617    9.8194 H         1 UNK         0.0638 
     98 H98       -58.1608  -29.5206   11.8673 H         1 UNK         0.0568 
     99 H99       -55.8314  -32.0731   12.2152 H         1 UNK         0.3450 
    100 H100      -56.5057  -33.0994   10.9739 H         1 UNK         0.3450 
    101 H101      -55.6209  -29.2135   13.0396 H         1 UNK         0.2987 
    102 H102      -56.7859  -30.1171   16.2391 H         1 UNK         0.0766 
    103 H103      -55.3028  -32.0213   15.6211 H         1 UNK         0.0798 
    104 H104      -54.4081  -30.7985   16.5102 H         1 UNK         0.0798 
    105 H105      -54.2214  -30.9304   14.7636 H         1 UNK         0.0798 
    106 H106      -54.5867  -28.5187   15.3397 H         1 UNK         0.3198 
    107 H107      -55.6728  -25.8479   14.4196 H         1 UNK         0.0843 
    108 H108      -56.5963  -25.3507   17.2912 H         1 UNK         0.0831 
    109 H109      -57.4604  -24.9393   15.8195 H         1 UNK         0.0831 
    110 H110      -55.9615  -24.1136   16.2064 H         1 UNK         0.0831 
    111 H111      -53.5868  -25.9581   15.1890 H         1 UNK         0.3133 
    112 H112      -51.9552  -25.7256   17.6385 H         1 UNK         0.0566 
    113 H113      -50.7903  -27.8176   18.3827 H         1 UNK         0.0814 
    114 H114      -52.2171  -28.7618   17.9559 H         1 UNK         0.0814 
    115 H115      -52.2965  -27.5706   19.2473 H         1 UNK         0.0814 
    116 H116      -50.7447  -26.2567   15.8813 H         1 UNK         0.3091 
    117 H117      -50.2099  -29.0444   14.0537 H         1 UNK         0.0702 
    118 H118      -50.3591  -27.8626   11.8385 H         1 UNK         0.0785 
    119 H119      -51.5755  -26.7793   12.5085 H         1 UNK         0.0785 
    120 H120      -51.9037  -28.5010   12.3656 H         1 UNK         0.0785 
    121 H121      -49.3289  -26.3342   13.6030 H         1 UNK         0.2998 
    122 H122      -47.2399  -26.0871   16.4429 H         1 UNK         0.0697 
    123 H123      -46.4253  -26.5012   13.5179 H         1 UNK         0.0825 
    124 H124      -45.7071  -27.2550   14.9279 H         1 UNK         0.0825 
    125 H125      -45.5216  -25.5265   14.6803 H         1 UNK         0.0825 
    126 H126      -47.8087  -24.4245   14.1451 H         1 UNK         0.3029 
    127 H127      -50.6164  -22.7535   15.6081 H         1 UNK         0.0897 
    128 H128      -47.7414  -21.7690   15.1738 H         1 UNK         0.0792 
    129 H129      -48.6467  -21.6514   16.6760 H         1 UNK         0.0792 
    130 H130      -49.1830  -20.7562   15.2649 H         1 UNK         0.0792 
    131 H131      -49.1000  -22.3704   13.1861 H         1 UNK         0.3086 
    132 H132      -50.8450  -24.6699   11.1807 H         1 UNK         0.0583 
    133 H133      -52.5169  -22.8212   11.1594 H         1 UNK         0.1020 
    134 H134      -51.2442  -21.6342   11.1929 H         1 UNK         0.1020 
    135 H135      -53.7677  -22.8878    8.9332 H         1 UNK         0.0694 
    136 H136      -53.0182  -23.4046    7.4469 H         1 UNK         0.0694 
    137 H137      -48.9897  -22.7192   10.4161 H         1 UNK         0.2989 
    138 H138      -46.4396  -23.0411   10.9843 H         1 UNK         0.1055 
    139 H139      -44.8190  -24.8350   10.2289 H         1 UNK         0.0806 
    140 H140      -46.0747  -26.0448   10.5056 H         1 UNK         0.0806 
    141 H141      -45.4382  -25.1034   11.8474 H         1 UNK         0.0806 
    142 H142      -46.8947  -24.6517    8.5497 H         1 UNK         0.3061 
    143 H143      -48.6563  -23.5254    6.9374 H         1 UNK         0.0734 
    144 H144      -47.3848  -20.7941    6.4060 H         1 UNK         0.0832 
    145 H145      -48.4996  -21.6417    5.3311 H         1 UNK         0.0832 
    146 H146      -49.0481  -21.0826    6.8987 H         1 UNK         0.0832 
    147 H147      -46.2989  -22.8551    5.5015 H         1 UNK         0.3156 
    148 H148      -45.4234  -24.5712    4.2586 H         1 UNK         0.0589 
    149 H149      -43.7372  -25.6453    6.5993 H         1 UNK         0.0808 
    150 H150      -43.6539  -24.0217    5.9321 H         1 UNK         0.0808 
    151 H151      -43.1538  -25.3919    4.9551 H         1 UNK         0.0808 
    152 H152      -45.2107  -27.2732    5.4610 H         1 UNK         0.3098 
    153 H153      -47.8657  -28.6018    3.4969 H         1 UNK         0.0720 
    154 H154      -45.7145  -29.1289    2.3424 H         1 UNK         0.0791 
    155 H155      -46.2045  -30.4433    3.3975 H         1 UNK         0.0791 
    156 H156      -44.9129  -29.3491    3.8913 H         1 UNK         0.0791 
    157 H157      -46.4110  -29.4242    5.8722 H         1 UNK         0.3028 
@<TRIPOS>BOND
     1    1    2 1    
     2    1   82 1    
     3    1   83 1    
     4    1   84 1    
     5    2    3 2    
     6    2    4 am   BACKBONE|DICT|INTERRES
     7    4    5 1    
     8    4   85 1    
     9    5    6 1    
    10    5   80 1    
    11    5   86 1    
    12    6    7 1    
    13    6   87 1    
    14    6   88 1    
    15    7    8 1    
    16    8    9 1    
    17    8   89 1    
    18    8   90 1    
    19    9   10 ar   
    20    9   14 ar   
    21   10   11 ar   
    22   10   91 1    
    23   11   12 ar   
    24   11   58 1    
    25   12   13 ar   
    26   12   92 1    
    27   13   14 ar   
    28   13   15 1    
    29   14   93 1    
    30   15   16 1    
    31   15   94 1    
    32   15   95 1    
    33   16   17 1    
    34   17   18 1    
    35   17   96 1    
    36   17   97 1    
    37   18   19 1    
    38   18   22 1    
    39   18   98 1    
    40   19   20 am   BACKBONE|DICT|INTERRES
    41   19   21 2    
    42   20   99 1    
    43   20  100 1    
    44   22   23 am   BACKBONE|DICT|INTERRES
    45   22  101 1    
    46   23   24 2    
    47   23   25 1    
    48   25   26 1    
    49   25   27 1    
    50   25  102 1    
    51   26  103 1    
    52   26  104 1    
    53   26  105 1    
    54   27   28 am   BACKBONE|DICT|INTERRES
    55   27  106 1    
    56   28   29 2    
    57   28   30 1    
    58   30   31 1    
    59   30   32 1    
    60   30  107 1    
    61   31  108 1    
    62   31  109 1    
    63   31  110 1    
    64   32   33 am   BACKBONE|DICT|INTERRES
    65   32  111 1    
    66   33   34 2    
    67   33   35 1    
    68   35   36 1    
    69   35   37 1    
    70   35  112 1    
    71   36  113 1    
    72   36  114 1    
    73   36  115 1    
    74   37   38 am   BACKBONE|DICT|INTERRES
    75   37  116 1    
    76   38   39 2    
    77   38   40 1    
    78   40   41 1    
    79   40   42 1    
    80   40  117 1    
    81   41  118 1    
    82   41  119 1    
    83   41  120 1    
    84   42   43 am   BACKBONE|DICT|INTERRES
    85   42  121 1    
    86   43   44 2    
    87   43   45 1    
    88   45   46 1    
    89   45   47 1    
    90   45  122 1    
    91   46  123 1    
    92   46  124 1    
    93   46  125 1    
    94   47   48 am   BACKBONE|DICT|INTERRES
    95   47  126 1    
    96   48   49 2    
    97   48   50 1    
    98   50   51 1    
    99   50   52 1    
   100   50  127 1    
   101   51  128 1    
   102   51  129 1    
   103   51  130 1    
   104   52   53 am   BACKBONE|DICT|INTERRES
   105   52  131 1    
   106   53   54 2    
   107   53   55 1    
   108   55   56 1    
   109   55   59 1    
   110   55  132 1    
   111   56   57 1    
   112   56  133 1    
   113   56  134 1    
   114   57   58 1    
   115   58  135 1    
   116   58  136 1    
   117   59   60 am   BACKBONE|DICT|INTERRES
   118   59  137 1    
   119   60   61 2    
   120   60   62 1    
   121   62   63 1    
   122   62   64 1    
   123   62  138 1    
   124   63  139 1    
   125   63  140 1    
   126   63  141 1    
   127   64   65 am   BACKBONE|DICT|INTERRES
   128   64  142 1    
   129   65   66 2    
   130   65   67 1    
   131   67   68 1    
   132   67   69 1    
   133   67  143 1    
   134   68  144 1    
   135   68  145 1    
   136   68  146 1    
   137   69   70 am   BACKBONE|DICT|INTERRES
   138   69  147 1    
   139   70   71 2    
   140   70   72 1    
   141   72   73 1    
   142   72   74 1    
   143   72  148 1    
   144   73  149 1    
   145   73  150 1    
   146   73  151 1    
   147   74   75 am   BACKBONE|DICT|INTERRES
   148   74  152 1    
   149   75   76 2    
   150   75   77 1    
   151   77   78 1    
   152   77   79 1    
   153   77  153 1    
   154   78  154 1    
   155   78  155 1    
   156   78  156 1    
   157   79   80 am   BACKBONE|DICT|INTERRES
   158   79  157 1    
   159   80   81 2    
@<TRIPOS>SUBSTRUCTURE
     1 UNK         1 GROUP             0       ****    0 ROOT    
