@<TRIPOS>MOLECULE
3R207
157   159    1
SMALL
USER_CHARGES


@<TRIPOS>ATOM
      1 CA        -45.7970  -28.9424   11.7497 C.3       0 UNK        -0.1975 
      2 C         -46.1102  -28.9539   10.2616 C.2       0 UNK         0.4852 
      3 O         -45.2016  -28.8052    9.4430 O.2       0 UNK        -0.5216 
      4 N         -47.3902  -29.1219    9.9024 N.am      1 UNK        -0.4461 
      5 CA        -47.8878  -29.1459    8.5219 C.3       1 UNK         0.0864 
      6 C6        -49.4035  -29.4509    8.4275 C.3       14 UNK        -0.0898 
      7 S7        -49.9484  -30.8663    9.4480 S.3       14 UNK        -0.2598 
      8 C8        -51.5967  -31.2260    8.7556 C.3       14 UNK         0.0286 
      9 C9        -52.4920  -29.9943    8.7144 C.ar      14 UNK        -0.0844 
     10 C10       -52.5628  -29.2326    7.5447 C.ar      14 UNK        -0.0881 
     11 C11       -53.3565  -28.0862    7.4871 C.ar      14 UNK        -0.0643 
     12 C12       -54.1038  -27.7127    8.6073 C.ar      14 UNK        -0.0930 
     13 C13       -54.0518  -28.4698    9.7814 C.ar      14 UNK        -0.0827 
     14 C14       -53.2461  -29.6140    9.8302 C.ar      14 UNK        -0.1249 
     15 C15       -54.8952  -28.0551   10.9771 C.3       14 UNK         0.0141 
     16 S16       -54.1354  -26.6885   11.9138 S.3       14 UNK        -0.2313 
     17 C17       -55.6064  -26.0281   12.7706 C.3       14 UNK        -0.0915 
     18 CA        -55.3200  -25.4333   14.1756 C.3       13 UNK         0.0968 
     19 C         -56.6425  -24.8929   14.7955 C.2       13 UNK         0.5732 
     20 N         -57.2505  -25.5772   15.7584 N.am      13 UNK        -0.7310 
     21 O         -57.1268  -23.8395   14.3894 O.2       13 UNK        -0.5035 
     22 N         -54.5876  -26.3877   15.0194 N.am      13 UNK        -0.4233 
     23 C         -54.0888  -26.1595   16.2418 C.2       13 UNK         0.4989 
     24 O         -54.1214  -25.0623   16.7992 O.2       13 UNK        -0.4996 
     25 CA        -53.4080  -27.3475   16.9526 C.3       12 UNK         0.0216 
     26 CB        -53.7996  -27.4419   18.4425 C.3       12 UNK        -0.1964 
     27 N         -53.5879  -28.6348   16.2622 N.am      12 UNK        -0.4276 
     28 C         -54.7271  -29.3249   16.0849 C.2       12 UNK         0.5020 
     29 O         -55.8071  -28.9828   16.5680 O.2       12 UNK        -0.5489 
     30 CA        -54.6838  -30.5537   15.1539 C.3       11 UNK         0.0294 
     31 CB        -55.8861  -30.5586   14.1917 C.3       11 UNK        -0.2019 
     32 N         -53.4474  -30.6202   14.3654 N.am      11 UNK        -0.4493 
     33 C         -52.3740  -31.3500   14.6946 C.2       11 UNK         0.4932 
     34 O         -52.3191  -32.0795   15.6848 O.2       11 UNK        -0.5029 
     35 CA        -51.1400  -31.2375   13.7794 C.3       10 UNK         0.0280 
     36 CB        -51.1863  -32.3238   12.6928 C.3       10 UNK        -0.1976 
     37 N         -50.9250  -29.9274   13.1466 N.am      10 UNK        -0.4242 
     38 C         -50.8131  -28.7511   13.7837 C.2       10 UNK         0.5072 
     39 O         -51.0321  -28.6133   14.9877 O.2       10 UNK        -0.5224 
     40 CA        -50.3526  -27.5370   12.9520 C.3       9 UNK         0.0343 
     41 CB        -50.5554  -27.6982   11.4370 C.3       9 UNK        -0.2003 
     42 N         -51.0126  -26.3035   13.3736 N.am      9 UNK        -0.4272 
     43 C         -50.5386  -25.4566   14.2950 C.2       9 UNK         0.4988 
     44 O         -49.5013  -25.6371   14.9345 O.2       9 UNK        -0.5108 
     45 CA        -51.3225  -24.1496   14.4530 C.3       8 UNK         0.0248 
     46 CB        -50.7501  -23.2211   15.5434 C.3       8 UNK        -0.2001 
     47 N         -51.3461  -23.4666   13.1613 N.am      8 UNK        -0.4140 
     48 C         -52.2820  -22.5977   12.7636 C.2       8 UNK         0.5028 
     49 O         -53.2493  -22.2641   13.4483 O.2       8 UNK        -0.5428 
     50 CA        -52.1070  -21.9942   11.3643 C.3       7 UNK         0.0264 
     51 CB        -51.1469  -20.7938   11.4092 C.3       7 UNK        -0.1988 
     52 N         -51.6104  -22.9760   10.3970 N.am      7 UNK        -0.4454 
     53 C         -52.4023  -23.7678    9.6555 C.2       7 UNK         0.5027 
     54 O         -53.6273  -23.7866    9.7858 O.2       7 UNK        -0.5083 
     55 CA        -51.7440  -24.6773    8.5812 C.3       6 UNK         0.0844 
     56 C56       -52.6322  -24.7856    7.3079 C.3       14 UNK        -0.0967 
     57 S57       -52.0448  -26.0545    6.1353 S.3       14 UNK        -0.2604 
     58 C58       -53.4038  -27.2651    6.2078 C.3       14 UNK         0.0134 
     59 N         -50.3511  -24.3056    8.2827 N.am      6 UNK        -0.4116 
     60 C         -49.9327  -23.1453    7.7510 C.2       5 UNK         0.5034 
     61 O         -50.6944  -22.2707    7.3349 O.2       5 UNK        -0.5045 
     62 CA        -48.4114  -22.8913    7.7190 C.3       5 UNK         0.0224 
     63 CB        -48.0730  -21.3905    7.8411 C.3       5 UNK        -0.1978 
     64 N         -47.6369  -23.6511    8.7098 N.am      5 UNK        -0.4737 
     65 C         -47.7933  -23.6892   10.0438 C.2       4 UNK         0.5027 
     66 O         -48.7098  -23.1209   10.6398 O.2       4 UNK        -0.5211 
     67 CA        -46.7858  -24.5317   10.8494 C.3       4 UNK         0.0297 
     68 CB        -47.5073  -25.5905   11.6960 C.3       4 UNK        -0.1993 
     69 N         -45.8172  -25.2075    9.9840 N.am      4 UNK        -0.4486 
     70 C         -44.5954  -24.7471    9.6835 C.2       3 UNK         0.4961 
     71 O         -44.0987  -23.7390   10.1856 O.2       3 UNK        -0.5105 
     72 CA        -43.7982  -25.5272    8.6218 C.3       3 UNK         0.0299 
     73 CB        -42.7606  -26.4442    9.2889 C.3       3 UNK        -0.1972 
     74 N         -44.6549  -26.3134    7.7250 N.am      3 UNK        -0.4305 
     75 C         -45.4258  -25.7755    6.7654 C.2       2 UNK         0.5006 
     76 O         -45.4723  -24.5680    6.5316 O.2       2 UNK        -0.5106 
     77 CA        -46.3358  -26.7199    5.9578 C.3       2 UNK         0.0296 
     78 CB        -45.6201  -27.1961    4.6837 C.3       2 UNK        -0.2002 
     79 N         -46.8098  -27.8812    6.7150 N.am      2 UNK        -0.4032 
     80 C         -47.5725  -27.8130    7.8145 C.2       1 UNK         0.5000 
     81 O         -47.9858  -26.7564    8.3026 O.2       1 UNK        -0.5238 
     82 H82       -45.2095  -29.8209   12.0143 H         1 UNK         0.0889 
     83 H83       -46.7016  -28.9396   12.3575 H         1 UNK         0.0889 
     84 H84       -45.2157  -28.0560   12.0024 H         1 UNK         0.0889 
     85 H85       -48.0916  -29.2705   10.6105 H         1 UNK         0.3028 
     86 H86       -47.3547  -29.9508    8.0114 H         1 UNK         0.0864 
     87 H87       -49.6643  -29.6574    7.3883 H         1 UNK         0.0720 
     88 H88       -49.9942  -28.5800    8.7187 H         1 UNK         0.0720 
     89 H89       -52.0695  -32.0067    9.3529 H         1 UNK         0.0814 
     90 H90       -51.4787  -31.6426    7.7541 H         1 UNK         0.0814 
     91 H91       -51.9858  -29.5224    6.6774 H         1 UNK         0.1469 
     92 H92       -54.7288  -26.8313    8.5710 H         1 UNK         0.1381 
     93 H93       -53.2013  -30.2049   10.7341 H         1 UNK         0.1206 
     94 H94       -55.8819  -27.7512   10.6237 H         1 UNK         0.0813 
     95 H95       -55.0556  -28.9046   11.6397 H         1 UNK         0.0813 
     96 H96       -56.0459  -25.2687   12.1209 H         1 UNK         0.0638 
     97 H97       -56.3488  -26.8245   12.8540 H         1 UNK         0.0638 
     98 H98       -54.6694  -24.5679   14.0443 H         1 UNK         0.0568 
     99 H99       -56.8642  -26.4477   16.0909 H         1 UNK         0.3450 
    100 H100      -58.1057  -25.2197   16.1534 H         1 UNK         0.3450 
    101 H101      -54.5098  -27.3207   14.6484 H         1 UNK         0.2987 
    102 H102      -52.3379  -27.1387   16.9111 H         1 UNK         0.0766 
    103 H103      -54.8752  -27.5602   18.5758 H         1 UNK         0.0798 
    104 H104      -53.3056  -28.2823   18.9300 H         1 UNK         0.0798 
    105 H105      -53.5068  -26.5396   18.9808 H         1 UNK         0.0798 
    106 H106      -52.7443  -28.9712   15.8020 H         1 UNK         0.3198 
    107 H107      -54.7652  -31.4373   15.7908 H         1 UNK         0.0843 
    108 H108      -56.8213  -30.6789   14.7403 H         1 UNK         0.0831 
    109 H109      -55.8263  -31.3807   13.4782 H         1 UNK         0.0831 
    110 H110      -55.9624  -29.6268   13.6324 H         1 UNK         0.0831 
    111 H111      -53.3976  -30.0454   13.5372 H         1 UNK         0.3133 
    112 H112      -50.2662  -31.4287   14.4056 H         1 UNK         0.0566 
    113 H113      -50.2524  -32.3657   12.1321 H         1 UNK         0.0814 
    114 H114      -51.3388  -33.3112   13.1313 H         1 UNK         0.0814 
    115 H115      -51.9978  -32.1538   11.9845 H         1 UNK         0.0814 
    116 H116      -50.7481  -29.9435   12.1524 H         1 UNK         0.3091 
    117 H117      -49.2791  -27.4429   13.1269 H         1 UNK         0.0702 
    118 H118      -50.2962  -26.7879   10.8968 H         1 UNK         0.0785 
    119 H119      -51.5853  -27.9405   11.1849 H         1 UNK         0.0785 
    120 H120      -49.9181  -28.4868   11.0489 H         1 UNK         0.0785 
    121 H121      -51.8923  -26.0910   12.9223 H         1 UNK         0.2998 
    122 H122      -52.3414  -24.4176   14.7310 H         1 UNK         0.0697 
    123 H123      -49.7360  -22.8978   15.3054 H         1 UNK         0.0825 
    124 H124      -50.7168  -23.7285   16.5084 H         1 UNK         0.0825 
    125 H125      -51.3652  -22.3302   15.6700 H         1 UNK         0.0825 
    126 H126      -50.5837  -23.6778   12.5307 H         1 UNK         0.3029 
    127 H127      -53.0823  -21.6259   11.0374 H         1 UNK         0.0897 
    128 H128      -51.0455  -20.3321   10.4268 H         1 UNK         0.0792 
    129 H129      -51.5142  -20.0269   12.0925 H         1 UNK         0.0792 
    130 H130      -50.1505  -21.0811   11.7471 H         1 UNK         0.0792 
    131 H131      -50.6016  -23.0194   10.2712 H         1 UNK         0.3086 
    132 H132      -51.6975  -25.6685    9.0352 H         1 UNK         0.0583 
    133 H133      -53.6657  -25.0094    7.5725 H         1 UNK         0.1020 
    134 H134      -52.6780  -23.8304    6.7837 H         1 UNK         0.1020 
    135 H135      -54.3643  -26.7568    6.1091 H         1 UNK         0.0694 
    136 H136      -53.3258  -27.9281    5.3449 H         1 UNK         0.0694 
    137 H137      -49.6443  -24.9755    8.5594 H         1 UNK         0.2989 
    138 H138      -48.0726  -23.2321    6.7392 H         1 UNK         0.1055 
    139 H139      -46.9972  -21.2219    7.7930 H         1 UNK         0.0806 
    140 H140      -48.4370  -20.9719    8.7803 H         1 UNK         0.0806 
    141 H141      -48.5235  -20.8156    7.0310 H         1 UNK         0.0806 
    142 H142      -46.8676  -24.1821    8.3227 H         1 UNK         0.3061 
    143 H143      -46.2716  -23.8485   11.5284 H         1 UNK         0.0734 
    144 H144      -46.8122  -26.1091   12.3554 H         1 UNK         0.0832 
    145 H145      -48.2680  -25.1364   12.3309 H         1 UNK         0.0832 
    146 H146      -47.9976  -26.3349   11.0700 H         1 UNK         0.0832 
    147 H147      -46.1591  -26.0229    9.4910 H         1 UNK         0.3156 
    148 H148      -43.2567  -24.7965    8.0168 H         1 UNK         0.0589 
    149 H149      -43.2259  -27.1670    9.9592 H         1 UNK         0.0808 
    150 H150      -42.1807  -26.9955    8.5487 H         1 UNK         0.0808 
    151 H151      -42.0554  -25.8620    9.8837 H         1 UNK         0.0808 
    152 H152      -44.7073  -27.3099    7.9068 H         1 UNK         0.3098 
    153 H153      -47.2151  -26.1446    5.6594 H         1 UNK         0.0720 
    154 H154      -46.2839  -27.7868    4.0520 H         1 UNK         0.0791 
    155 H155      -44.7445  -27.8043    4.9144 H         1 UNK         0.0791 
    156 H156      -45.2797  -26.3481    4.0875 H         1 UNK         0.0791 
    157 H157      -46.4957  -28.7862    6.3949 H         1 UNK         0.3028 
@<TRIPOS>BOND
     1    1    2 1    
     2    1   82 1    
     3    1   83 1    
     4    1   84 1    
     5    2    3 2    
     6    2    4 am   BACKBONE|DICT|INTERRES
     7    4    5 1    
     8    4   85 1    
     9    5    6 1    
    10    5   80 1    
    11    5   86 1    
    12    6    7 1    
    13    6   87 1    
    14    6   88 1    
    15    7    8 1    
    16    8    9 1    
    17    8   89 1    
    18    8   90 1    
    19    9   10 ar   
    20    9   14 ar   
    21   10   11 ar   
    22   10   91 1    
    23   11   12 ar   
    24   11   58 1    
    25   12   13 ar   
    26   12   92 1    
    27   13   14 ar   
    28   13   15 1    
    29   14   93 1    
    30   15   16 1    
    31   15   94 1    
    32   15   95 1    
    33   16   17 1    
    34   17   18 1    
    35   17   96 1    
    36   17   97 1    
    37   18   19 1    
    38   18   22 1    
    39   18   98 1    
    40   19   20 am   BACKBONE|DICT|INTERRES
    41   19   21 2    
    42   20   99 1    
    43   20  100 1    
    44   22   23 am   BACKBONE|DICT|INTERRES
    45   22  101 1    
    46   23   24 2    
    47   23   25 1    
    48   25   26 1    
    49   25   27 1    
    50   25  102 1    
    51   26  103 1    
    52   26  104 1    
    53   26  105 1    
    54   27   28 am   BACKBONE|DICT|INTERRES
    55   27  106 1    
    56   28   29 2    
    57   28   30 1    
    58   30   31 1    
    59   30   32 1    
    60   30  107 1    
    61   31  108 1    
    62   31  109 1    
    63   31  110 1    
    64   32   33 am   BACKBONE|DICT|INTERRES
    65   32  111 1    
    66   33   34 2    
    67   33   35 1    
    68   35   36 1    
    69   35   37 1    
    70   35  112 1    
    71   36  113 1    
    72   36  114 1    
    73   36  115 1    
    74   37   38 am   BACKBONE|DICT|INTERRES
    75   37  116 1    
    76   38   39 2    
    77   38   40 1    
    78   40   41 1    
    79   40   42 1    
    80   40  117 1    
    81   41  118 1    
    82   41  119 1    
    83   41  120 1    
    84   42   43 am   BACKBONE|DICT|INTERRES
    85   42  121 1    
    86   43   44 2    
    87   43   45 1    
    88   45   46 1    
    89   45   47 1    
    90   45  122 1    
    91   46  123 1    
    92   46  124 1    
    93   46  125 1    
    94   47   48 am   BACKBONE|DICT|INTERRES
    95   47  126 1    
    96   48   49 2    
    97   48   50 1    
    98   50   51 1    
    99   50   52 1    
   100   50  127 1    
   101   51  128 1    
   102   51  129 1    
   103   51  130 1    
   104   52   53 am   BACKBONE|DICT|INTERRES
   105   52  131 1    
   106   53   54 2    
   107   53   55 1    
   108   55   56 1    
   109   55   59 1    
   110   55  132 1    
   111   56   57 1    
   112   56  133 1    
   113   56  134 1    
   114   57   58 1    
   115   58  135 1    
   116   58  136 1    
   117   59   60 am   BACKBONE|DICT|INTERRES
   118   59  137 1    
   119   60   61 2    
   120   60   62 1    
   121   62   63 1    
   122   62   64 1    
   123   62  138 1    
   124   63  139 1    
   125   63  140 1    
   126   63  141 1    
   127   64   65 am   BACKBONE|DICT|INTERRES
   128   64  142 1    
   129   65   66 2    
   130   65   67 1    
   131   67   68 1    
   132   67   69 1    
   133   67  143 1    
   134   68  144 1    
   135   68  145 1    
   136   68  146 1    
   137   69   70 am   BACKBONE|DICT|INTERRES
   138   69  147 1    
   139   70   71 2    
   140   70   72 1    
   141   72   73 1    
   142   72   74 1    
   143   72  148 1    
   144   73  149 1    
   145   73  150 1    
   146   73  151 1    
   147   74   75 am   BACKBONE|DICT|INTERRES
   148   74  152 1    
   149   75   76 2    
   150   75   77 1    
   151   77   78 1    
   152   77   79 1    
   153   77  153 1    
   154   78  154 1    
   155   78  155 1    
   156   78  156 1    
   157   79   80 am   BACKBONE|DICT|INTERRES
   158   79  157 1    
   159   80   81 2    
@<TRIPOS>SUBSTRUCTURE
     1 UNK         1 GROUP             0       ****    0 ROOT    
