@<TRIPOS>MOLECULE
3R207
157   159    1
SMALL
USER_CHARGES


@<TRIPOS>ATOM
      1 CA        -47.8257  -24.8059    4.6162 C.3       0 UNK        -0.1975 
      2 C         -47.8192  -26.2864    4.9679 C.2       0 UNK         0.4852 
      3 O         -46.8641  -26.9846    4.6298 O.2       0 UNK        -0.5216 
      4 N         -48.8880  -26.7486    5.6312 N.am      1 UNK        -0.4461 
      5 CA        -49.1279  -28.1078    6.1299 C.3       1 UNK         0.0864 
      6 C6        -49.0366  -29.2063    5.0377 C.3       14 UNK        -0.0898 
      7 S7        -49.8980  -30.7481    5.5047 S.3       14 UNK        -0.2598 
      8 C8        -51.5550  -30.4983    4.7891 C.3       14 UNK         0.0286 
      9 C9        -52.3475  -29.4562    5.5645 C.ar      14 UNK        -0.0844 
     10 C10       -52.4059  -28.1347    5.1125 C.ar      14 UNK        -0.0881 
     11 C11       -53.0926  -27.1640    5.8462 C.ar      14 UNK        -0.0643 
     12 C12       -53.7682  -27.5332    7.0146 C.ar      14 UNK        -0.0930 
     13 C13       -53.7343  -28.8559    7.4654 C.ar      14 UNK        -0.0827 
     14 C14       -53.0133  -29.8108    6.7417 C.ar      14 UNK        -0.1249 
     15 C15       -54.5104  -29.2643    8.7087 C.3       14 UNK         0.0141 
     16 S16       -53.5940  -28.9270   10.2466 S.3       14 UNK        -0.2313 
     17 C17       -54.7001  -29.7464   11.4461 C.3       14 UNK        -0.0915 
     18 CA        -55.6777  -28.7606   12.1461 C.3       13 UNK         0.0968 
     19 C         -56.9725  -29.4938   12.6121 C.2       13 UNK         0.5732 
     20 N         -57.2702  -29.6013   13.9018 N.am      13 UNK        -0.7310 
     21 O         -57.7341  -29.9717   11.7744 O.2       13 UNK        -0.5035 
     22 N         -54.9998  -27.9924   13.2020 N.am      13 UNK        -0.4233 
     23 C         -55.4682  -26.8644   13.7546 C.2       13 UNK         0.4989 
     24 O         -56.4679  -26.2724   13.3431 O.2       13 UNK        -0.4996 
     25 CA        -54.7033  -26.3178   14.9839 C.3       12 UNK         0.0216 
     26 CB        -55.5888  -25.4267   15.8803 C.3       12 UNK        -0.1964 
     27 N         -54.0392  -27.3473   15.8009 N.am      12 UNK        -0.4276 
     28 C         -54.6139  -28.4245   16.3610 C.2       12 UNK         0.5020 
     29 O         -55.7989  -28.7252   16.2144 O.2       12 UNK        -0.5489 
     30 CA        -53.7179  -29.3510   17.2004 C.3       11 UNK         0.0294 
     31 CB        -53.2422  -30.5393   16.3480 C.3       11 UNK        -0.2019 
     32 N         -52.5540  -28.6881   17.7940 N.am      11 UNK        -0.4493 
     33 C         -52.6042  -27.7438   18.7436 C.2       11 UNK         0.4932 
     34 O         -53.6509  -27.3024   19.2193 O.2       11 UNK        -0.5029 
     35 CA        -51.2629  -27.1981   19.2660 C.3       10 UNK         0.0280 
     36 CB        -50.0386  -28.0771   18.9165 C.3       10 UNK        -0.1976 
     37 N         -51.0406  -25.8098   18.8503 N.am      10 UNK        -0.4242 
     38 C         -50.9441  -25.3444   17.5965 C.2       10 UNK         0.5072 
     39 O         -51.0816  -26.0433   16.5857 O.2       10 UNK        -0.5224 
     40 CA        -50.6176  -23.8478   17.4535 C.3       9 UNK         0.0343 
     41 CB        -49.4285  -23.4136   18.3376 C.3       9 UNK        -0.2003 
     42 N         -50.3139  -23.5746   16.0537 N.am      9 UNK        -0.4272 
     43 C         -50.4008  -22.3942   15.4303 C.2       9 UNK         0.4988 
     44 O         -50.7279  -21.3488   15.9941 O.2       9 UNK        -0.5108 
     45 CA        -50.0542  -22.3572   13.9256 C.3       8 UNK         0.0248 
     46 CB        -48.7222  -21.6224   13.6985 C.3       8 UNK        -0.2001 
     47 N         -49.9834  -23.6774   13.2865 N.am      8 UNK        -0.4140 
     48 C         -51.0335  -24.4865   13.0960 C.2       8 UNK         0.5028 
     49 O         -52.1881  -24.1861   13.4024 O.2       8 UNK        -0.5428 
     50 CA        -50.7204  -25.8579   12.4721 C.3       7 UNK         0.0264 
     51 CB        -51.7495  -26.9302   12.8752 C.3       7 UNK        -0.1988 
     52 N         -50.5769  -25.7797   11.0150 N.am      7 UNK        -0.4454 
     53 C         -51.4787  -25.3552   10.1129 C.2       7 UNK         0.5027 
     54 O         -52.6268  -25.0063   10.3911 O.2       7 UNK        -0.5083 
     55 CA        -50.9984  -25.3116    8.6419 C.3       6 UNK         0.0844 
     56 C56       -52.0008  -24.5771    7.7054 C.3       14 UNK        -0.0967 
     57 S57       -51.6195  -24.8181    5.9380 S.3       14 UNK        -0.2604 
     58 C58       -53.0979  -25.7199    5.3678 C.3       14 UNK         0.0134 
     59 N         -49.6215  -24.7995    8.5435 N.am      6 UNK        -0.4116 
     60 C         -49.2140  -23.5627    8.8714 C.2       5 UNK         0.5034 
     61 O         -49.9749  -22.6669    9.2379 O.2       5 UNK        -0.5045 
     62 CA        -47.7081  -23.2614    8.8008 C.3       5 UNK         0.0224 
     63 CB        -47.2112  -22.5715   10.0857 C.3       5 UNK        -0.1978 
     64 N         -46.8869  -24.4518    8.5599 N.am      5 UNK        -0.4737 
     65 C         -45.7895  -24.4681    7.7884 C.2       4 UNK         0.5027 
     66 O         -45.4400  -23.5155    7.0901 O.2       4 UNK        -0.5211 
     67 CA        -44.9336  -25.7529    7.7950 C.3       4 UNK         0.0297 
     68 CB        -43.4320  -25.4695    7.5771 C.3       4 UNK        -0.1993 
     69 N         -45.1509  -26.5895    8.9824 N.am      4 UNK        -0.4486 
     70 C         -44.9097  -26.2719   10.2666 C.2       3 UNK         0.4961 
     71 O         -44.3241  -25.2469   10.6168 O.2       3 UNK        -0.5105 
     72 CA        -45.4350  -27.2428   11.3501 C.3       3 UNK         0.0299 
     73 CB        -45.9634  -26.4872   12.5896 C.3       3 UNK        -0.1972 
     74 N         -46.4414  -28.2019   10.8684 N.am      3 UNK        -0.4305 
     75 C         -47.6341  -27.9121   10.3309 C.2       2 UNK         0.5006 
     76 O         -48.0785  -26.7668   10.2013 O.2       2 UNK        -0.5106 
     77 CA        -48.4419  -29.1006    9.7850 C.3       2 UNK         0.0296 
     78 CB        -49.5939  -29.4561   10.7345 C.3       2 UNK        -0.2002 
     79 N         -48.9951  -28.8238    8.4581 N.am      2 UNK        -0.4032 
     80 C         -48.2942  -28.4289    7.3848 C.2       1 UNK         0.5000 
     81 O         -47.0664  -28.3141    7.3755 O.2       1 UNK        -0.5238 
     82 H82       -48.5428  -24.2478    5.2182 H         1 UNK         0.0889 
     83 H83       -48.0811  -24.6714    3.5655 H         1 UNK         0.0889 
     84 H84       -46.8399  -24.3728    4.7840 H         1 UNK         0.0889 
     85 H85       -49.6428  -26.0992    5.8177 H         1 UNK         0.3028 
     86 H86       -50.1622  -28.0642    6.4639 H         1 UNK         0.0864 
     87 H87       -47.9949  -29.4447    4.8153 H         1 UNK         0.0720 
     88 H88       -49.4624  -28.8424    4.1016 H         1 UNK         0.0720 
     89 H89       -52.0916  -31.4481    4.8052 H         1 UNK         0.0814 
     90 H90       -51.4671  -30.2193    3.7378 H         1 UNK         0.0814 
     91 H91       -51.8874  -27.8521    4.2063 H         1 UNK         0.1469 
     92 H92       -54.3241  -26.7952    7.5759 H         1 UNK         0.1381 
     93 H93       -52.9749  -30.8341    7.0903 H         1 UNK         0.1206 
     94 H94       -54.7505  -30.3273    8.6543 H         1 UNK         0.0813 
     95 H95       -55.4656  -28.7378    8.7386 H         1 UNK         0.0813 
     96 H96       -54.0865  -30.2636   12.1857 H         1 UNK         0.0638 
     97 H97       -55.2386  -30.5371   10.9204 H         1 UNK         0.0638 
     98 H98       -56.0188  -28.0440   11.3965 H         1 UNK         0.0568 
     99 H99       -56.6711  -29.2110   14.6251 H         1 UNK         0.3450 
    100 H100      -58.1174  -30.0769   14.1664 H         1 UNK         0.3450 
    101 H101      -54.1805  -28.4197   13.6037 H         1 UNK         0.2987 
    102 H102      -53.9094  -25.6872   14.5869 H         1 UNK         0.0766 
    103 H103      -55.9782  -24.5725   15.3249 H         1 UNK         0.0798 
    104 H104      -55.0245  -25.0309   16.7248 H         1 UNK         0.0798 
    105 H105      -56.4431  -25.9771   16.2761 H         1 UNK         0.0798 
    106 H106      -53.0581  -27.1848   15.9980 H         1 UNK         0.3198 
    107 H107      -54.3316  -29.7388   18.0165 H         1 UNK         0.0843 
    108 H108      -52.5980  -30.2190   15.5281 H         1 UNK         0.0831 
    109 H109      -54.0894  -31.0685   15.9086 H         1 UNK         0.0831 
    110 H110      -52.6894  -31.2626   16.9478 H         1 UNK         0.0831 
    111 H111      -51.6450  -28.9708   17.4566 H         1 UNK         0.3133 
    112 H112      -51.3480  -27.1824   20.3537 H         1 UNK         0.0566 
    113 H113      -49.1398  -27.7006   19.4052 H         1 UNK         0.0814 
    114 H114      -49.8358  -28.1084   17.8455 H         1 UNK         0.0814 
    115 H115      -50.1785  -29.1031   19.2601 H         1 UNK         0.0814 
    116 H116      -50.9546  -25.1445   19.6058 H         1 UNK         0.3091 
    117 H117      -51.5103  -23.2873   17.7386 H         1 UNK         0.0702 
    118 H118      -49.1729  -22.3663   18.1751 H         1 UNK         0.0785 
    119 H119      -48.5374  -24.0076   18.1299 H         1 UNK         0.0785 
    120 H120      -49.6549  -23.5182   19.3989 H         1 UNK         0.0785 
    121 H121      -50.1236  -24.4059   15.5095 H         1 UNK         0.2998 
    122 H122      -50.8445  -21.7890   13.4305 H         1 UNK         0.0697 
    123 H123      -47.8822  -22.1605   14.1396 H         1 UNK         0.0825 
    124 H124      -48.7423  -20.6277   14.1463 H         1 UNK         0.0825 
    125 H125      -48.5194  -21.4892   12.6364 H         1 UNK         0.0825 
    126 H126      -49.0679  -23.9899   12.9981 H         1 UNK         0.3029 
    127 H127      -49.7538  -26.1804   12.8634 H         1 UNK         0.0897 
    128 H128      -52.7302  -26.7133   12.4550 H         1 UNK         0.0792 
    129 H129      -51.8515  -26.9754   13.9593 H         1 UNK         0.0792 
    130 H130      -51.4554  -27.9233   12.5428 H         1 UNK         0.0792 
    131 H131      -49.6571  -26.0452   10.6649 H         1 UNK         0.3086 
    132 H132      -50.9606  -26.3554    8.3265 H         1 UNK         0.0583 
    133 H133      -53.0206  -24.9138    7.8904 H         1 UNK         0.1020 
    134 H134      -52.0185  -23.5066    7.9128 H         1 UNK         0.1020 
    135 H135      -54.0001  -25.2044    5.7008 H         1 UNK         0.0694 
    136 H136      -53.1230  -25.6959    4.2773 H         1 UNK         0.0694 
    137 H137      -48.9133  -25.4748    8.2997 H         1 UNK         0.2989 
    138 H138      -47.5932  -22.5613    7.9702 H         1 UNK         0.1055 
    139 H139      -47.3370  -23.2127   10.9588 H         1 UNK         0.0806 
    140 H140      -47.7550  -21.6449   10.2734 H         1 UNK         0.0806 
    141 H141      -46.1547  -22.3123   10.0130 H         1 UNK         0.0806 
    142 H142      -47.0889  -25.2668    9.1304 H         1 UNK         0.3061 
    143 H143      -45.2777  -26.3429    6.9448 H         1 UNK         0.0734 
    144 H144      -43.0289  -24.8030    8.3400 H         1 UNK         0.0832 
    145 H145      -42.8480  -26.3895    7.5905 H         1 UNK         0.0832 
    146 H146      -43.2613  -24.9938    6.6107 H         1 UNK         0.0832 
    147 H147      -45.6602  -27.4460    8.7923 H         1 UNK         0.3156 
    148 H148      -44.5756  -27.8365   11.6647 H         1 UNK         0.0589 
    149 H149      -46.3363  -27.1767   13.3468 H         1 UNK         0.0808 
    150 H150      -45.1737  -25.8960   13.0548 H         1 UNK         0.0808 
    151 H151      -46.7709  -25.8011   12.3329 H         1 UNK         0.0808 
    152 H152      -46.1623  -29.1732   10.9093 H         1 UNK         0.3098 
    153 H153      -47.7822  -29.9659    9.6943 H         1 UNK         0.0720 
    154 H154      -49.2439  -29.5770   11.7607 H         1 UNK         0.0791 
    155 H155      -50.0734  -30.3909   10.4431 H         1 UNK         0.0791 
    156 H156      -50.3582  -28.6801   10.7334 H         1 UNK         0.0791 
    157 H157      -49.9952  -28.9283    8.3682 H         1 UNK         0.3028 
@<TRIPOS>BOND
     1    1    2 1    
     2    1   82 1    
     3    1   83 1    
     4    1   84 1    
     5    2    3 2    
     6    2    4 am   BACKBONE|DICT|INTERRES
     7    4    5 1    
     8    4   85 1    
     9    5    6 1    
    10    5   80 1    
    11    5   86 1    
    12    6    7 1    
    13    6   87 1    
    14    6   88 1    
    15    7    8 1    
    16    8    9 1    
    17    8   89 1    
    18    8   90 1    
    19    9   10 ar   
    20    9   14 ar   
    21   10   11 ar   
    22   10   91 1    
    23   11   12 ar   
    24   11   58 1    
    25   12   13 ar   
    26   12   92 1    
    27   13   14 ar   
    28   13   15 1    
    29   14   93 1    
    30   15   16 1    
    31   15   94 1    
    32   15   95 1    
    33   16   17 1    
    34   17   18 1    
    35   17   96 1    
    36   17   97 1    
    37   18   19 1    
    38   18   22 1    
    39   18   98 1    
    40   19   20 am   BACKBONE|DICT|INTERRES
    41   19   21 2    
    42   20   99 1    
    43   20  100 1    
    44   22   23 am   BACKBONE|DICT|INTERRES
    45   22  101 1    
    46   23   24 2    
    47   23   25 1    
    48   25   26 1    
    49   25   27 1    
    50   25  102 1    
    51   26  103 1    
    52   26  104 1    
    53   26  105 1    
    54   27   28 am   BACKBONE|DICT|INTERRES
    55   27  106 1    
    56   28   29 2    
    57   28   30 1    
    58   30   31 1    
    59   30   32 1    
    60   30  107 1    
    61   31  108 1    
    62   31  109 1    
    63   31  110 1    
    64   32   33 am   BACKBONE|DICT|INTERRES
    65   32  111 1    
    66   33   34 2    
    67   33   35 1    
    68   35   36 1    
    69   35   37 1    
    70   35  112 1    
    71   36  113 1    
    72   36  114 1    
    73   36  115 1    
    74   37   38 am   BACKBONE|DICT|INTERRES
    75   37  116 1    
    76   38   39 2    
    77   38   40 1    
    78   40   41 1    
    79   40   42 1    
    80   40  117 1    
    81   41  118 1    
    82   41  119 1    
    83   41  120 1    
    84   42   43 am   BACKBONE|DICT|INTERRES
    85   42  121 1    
    86   43   44 2    
    87   43   45 1    
    88   45   46 1    
    89   45   47 1    
    90   45  122 1    
    91   46  123 1    
    92   46  124 1    
    93   46  125 1    
    94   47   48 am   BACKBONE|DICT|INTERRES
    95   47  126 1    
    96   48   49 2    
    97   48   50 1    
    98   50   51 1    
    99   50   52 1    
   100   50  127 1    
   101   51  128 1    
   102   51  129 1    
   103   51  130 1    
   104   52   53 am   BACKBONE|DICT|INTERRES
   105   52  131 1    
   106   53   54 2    
   107   53   55 1    
   108   55   56 1    
   109   55   59 1    
   110   55  132 1    
   111   56   57 1    
   112   56  133 1    
   113   56  134 1    
   114   57   58 1    
   115   58  135 1    
   116   58  136 1    
   117   59   60 am   BACKBONE|DICT|INTERRES
   118   59  137 1    
   119   60   61 2    
   120   60   62 1    
   121   62   63 1    
   122   62   64 1    
   123   62  138 1    
   124   63  139 1    
   125   63  140 1    
   126   63  141 1    
   127   64   65 am   BACKBONE|DICT|INTERRES
   128   64  142 1    
   129   65   66 2    
   130   65   67 1    
   131   67   68 1    
   132   67   69 1    
   133   67  143 1    
   134   68  144 1    
   135   68  145 1    
   136   68  146 1    
   137   69   70 am   BACKBONE|DICT|INTERRES
   138   69  147 1    
   139   70   71 2    
   140   70   72 1    
   141   72   73 1    
   142   72   74 1    
   143   72  148 1    
   144   73  149 1    
   145   73  150 1    
   146   73  151 1    
   147   74   75 am   BACKBONE|DICT|INTERRES
   148   74  152 1    
   149   75   76 2    
   150   75   77 1    
   151   77   78 1    
   152   77   79 1    
   153   77  153 1    
   154   78  154 1    
   155   78  155 1    
   156   78  156 1    
   157   79   80 am   BACKBONE|DICT|INTERRES
   158   79  157 1    
   159   80   81 2    
@<TRIPOS>SUBSTRUCTURE
     1 UNK         1 GROUP             0       ****    0 ROOT    
