@<TRIPOS>MOLECULE
3R207
157   159    1
SMALL
USER_CHARGES


@<TRIPOS>ATOM
      1 CA        -44.6854  -30.7772    4.6816 C.3       0 UNK        -0.1975 
      2 C         -46.1929  -30.5805    4.7410 C.2       0 UNK         0.4852 
      3 O         -46.8476  -30.5507    3.6983 O.2       0 UNK        -0.5216 
      4 N         -46.7472  -30.4464    5.9533 N.am      1 UNK        -0.4461 
      5 CA        -48.1763  -30.2237    6.2114 C.3       1 UNK         0.0864 
      6 C6        -48.5508  -30.5531    7.6789 C.3       14 UNK        -0.0898 
      7 S7        -47.5521  -29.6446    8.9116 S.3       14 UNK        -0.2598 
      8 C8        -48.5294  -29.8423   10.4390 C.3       14 UNK         0.0286 
      9 C9        -49.9587  -29.3360   10.2990 C.ar      14 UNK        -0.0844 
     10 C10       -50.2067  -28.0080    9.9410 C.ar      14 UNK        -0.0881 
     11 C11       -51.5148  -27.5384    9.8026 C.ar      14 UNK        -0.0643 
     12 C12       -52.5819  -28.4168   10.0125 C.ar      14 UNK        -0.0930 
     13 C13       -52.3490  -29.7468   10.3762 C.ar      14 UNK        -0.0827 
     14 C14       -51.0352  -30.2006   10.5191 C.ar      14 UNK        -0.1249 
     15 C15       -53.5173  -30.6975   10.5947 C.3       14 UNK         0.0141 
     16 S16       -53.8650  -30.9931   12.3601 S.3       14 UNK        -0.2313 
     17 C17       -54.2946  -29.3216   12.9451 C.3       14 UNK        -0.0915 
     18 CA        -55.7288  -28.8750   12.5399 C.3       13 UNK         0.0968 
     19 C         -56.7723  -29.1575   13.6622 C.2       13 UNK         0.5732 
     20 N         -57.4332  -28.1582   14.2377 N.am      13 UNK        -0.7310 
     21 O         -56.9959  -30.3129   14.0142 O.2       13 UNK        -0.5035 
     22 N         -55.7260  -27.4904   12.0492 N.am      13 UNK        -0.4233 
     23 C         -56.6675  -26.9595   11.2568 C.2       13 UNK         0.4989 
     24 O         -57.5733  -27.6194   10.7442 O.2       13 UNK        -0.4996 
     25 CA        -56.5927  -25.4383   10.9966 C.3       12 UNK         0.0216 
     26 CB        -57.9708  -24.8247   10.6685 C.3       12 UNK        -0.1964 
     27 N         -55.9367  -24.6858   12.0754 N.am      12 UNK        -0.4276 
     28 C         -56.2961  -24.6451   13.3666 C.2       12 UNK         0.5020 
     29 O         -57.2844  -25.2160   13.8339 O.2       12 UNK        -0.5489 
     30 CA        -55.3383  -23.9012   14.3132 C.3       11 UNK         0.0294 
     31 CB        -56.0692  -22.7766   15.0650 C.3       11 UNK        -0.2019 
     32 N         -54.7195  -24.8138   15.2805 N.am      11 UNK        -0.4493 
     33 C         -53.9898  -25.8906   14.9608 C.2       11 UNK         0.4932 
     34 O         -53.7441  -26.2356   13.8011 O.2       11 UNK        -0.5029 
     35 CA        -53.4583  -26.7328   16.1259 C.3       10 UNK         0.0280 
     36 CB        -54.5620  -27.6089   16.7450 C.3       10 UNK        -0.1976 
     37 N         -52.3854  -27.5671   15.6013 N.am      10 UNK        -0.4242 
     38 C         -51.3342  -28.0319   16.2802 C.2       10 UNK         0.5072 
     39 O         -51.2043  -27.9257   17.5011 O.2       10 UNK        -0.5224 
     40 CA        -50.2191  -28.7051   15.4653 C.3       9 UNK         0.0343 
     41 CB        -50.6271  -29.1027   14.0299 C.3       9 UNK        -0.2003 
     42 N         -49.0985  -27.7726   15.3966 N.am      9 UNK        -0.4272 
     43 C         -47.8511  -28.0132   15.8214 C.2       9 UNK         0.4988 
     44 O         -47.4967  -29.0824   16.3210 O.2       9 UNK        -0.5108 
     45 CA        -46.8037  -26.8932   15.6573 C.3       8 UNK         0.0248 
     46 CB        -45.6589  -27.3529   14.7368 C.3       8 UNK        -0.2001 
     47 N         -47.3752  -25.6564   15.1176 N.am      8 UNK        -0.4140 
     48 C         -47.8431  -24.6411   15.8596 C.2       8 UNK         0.5028 
     49 O         -47.7752  -24.6085   17.0888 O.2       8 UNK        -0.5428 
     50 CA        -48.5158  -23.4630   15.1219 C.3       7 UNK         0.0264 
     51 CB        -47.5269  -22.2969   14.9619 C.3       7 UNK        -0.1988 
     52 N         -49.0670  -23.8035   13.8058 N.am      7 UNK        -0.4454 
     53 C         -50.0233  -24.7193   13.5856 C.2       7 UNK         0.5027 
     54 O         -50.5849  -25.3285   14.4928 O.2       7 UNK        -0.5083 
     55 CA        -50.3653  -25.0697   12.1179 C.3       6 UNK         0.0844 
     56 C56       -51.6219  -24.2825   11.6522 C.3       14 UNK        -0.0967 
     57 S57       -52.7929  -25.1745   10.5658 S.3       14 UNK        -0.2604 
     58 C58       -51.7755  -26.1017    9.3721 C.3       14 UNK         0.0134 
     59 N         -49.2166  -24.8852   11.2133 N.am      6 UNK        -0.4116 
     60 C         -48.0103  -25.4624   11.3575 C.2       5 UNK         0.5034 
     61 O         -47.7467  -26.2542   12.2621 O.2       5 UNK        -0.5045 
     62 CA        -46.8911  -25.0739   10.3761 C.3       5 UNK         0.0224 
     63 CB        -46.2904  -26.3088    9.6865 C.3       5 UNK        -0.1978 
     64 N         -47.3174  -24.1115    9.3584 N.am      5 UNK        -0.4737 
     65 C         -47.3048  -22.7809    9.5211 C.2       4 UNK         0.5027 
     66 O         -46.9616  -22.2314   10.5676 O.2       4 UNK        -0.5211 
     67 CA        -47.7506  -21.9121    8.3297 C.3       4 UNK         0.0297 
     68 CB        -46.5241  -21.3554    7.5890 C.3       4 UNK        -0.1993 
     69 N         -48.6063  -22.6190    7.3734 N.am      4 UNK        -0.4486 
     70 C         -49.8616  -23.0156    7.6228 C.2       3 UNK         0.4961 
     71 O         -50.4489  -22.7939    8.6809 O.2       3 UNK        -0.5105 
     72 CA        -50.5614  -23.8338    6.5214 C.3       3 UNK         0.0299 
     73 CB        -51.3039  -22.9005    5.5521 C.3       3 UNK        -0.1972 
     74 N         -49.6621  -24.7142    5.7625 N.am      3 UNK        -0.4305 
     75 C         -48.9024  -25.6846    6.2912 C.2       2 UNK         0.5006 
     76 O         -48.8323  -25.9186    7.4979 O.2       2 UNK        -0.5106 
     77 CA        -48.0072  -26.4604    5.3128 C.3       2 UNK         0.0296 
     78 CB        -46.6573  -25.7410    5.1534 C.3       2 UNK        -0.2002 
     79 N         -47.7573  -27.8352    5.7505 N.am      2 UNK        -0.4032 
     80 C         -48.6668  -28.8212    5.7757 C.2       1 UNK         0.5000 
     81 O         -49.8410  -28.6751    5.4287 O.2       1 UNK        -0.5238 
     82 H82       -44.4495  -31.7222    4.1931 H         1 UNK         0.0889 
     83 H83       -44.2358  -30.7875    5.6743 H         1 UNK         0.0889 
     84 H84       -44.2245  -29.9728    4.1089 H         1 UNK         0.0889 
     85 H85       -46.1651  -30.4840    6.7789 H         1 UNK         0.3028 
     86 H86       -48.7222  -30.9318    5.5837 H         1 UNK         0.0864 
     87 H87       -49.6125  -30.3616    7.8430 H         1 UNK         0.0720 
     88 H88       -48.4133  -31.6200    7.8607 H         1 UNK         0.0720 
     89 H89       -48.0396  -29.2917   11.2439 H         1 UNK         0.0814 
     90 H90       -48.5155  -30.8934   10.7308 H         1 UNK         0.0814 
     91 H91       -49.3751  -27.3479    9.7435 H         1 UNK         0.1469 
     92 H92       -53.5959  -28.0599    9.8958 H         1 UNK         0.1381 
     93 H93       -50.8548  -31.2298   10.7973 H         1 UNK         0.1206 
     94 H94       -53.2973  -31.6535   10.1174 H         1 UNK         0.0813 
     95 H95       -54.4162  -30.3186   10.1066 H         1 UNK         0.0813 
     96 H96       -53.5424  -28.6309   12.5649 H         1 UNK         0.0638 
     97 H97       -54.1605  -29.3002   14.0272 H         1 UNK         0.0638 
     98 H98       -56.0496  -29.4899   11.6977 H         1 UNK         0.0568 
     99 H99       -57.2847  -27.1920   13.9638 H         1 UNK         0.3450 
    100 H100      -58.1077  -28.3712   14.9543 H         1 UNK         0.3450 
    101 H101      -55.0234  -26.8831   12.4615 H         1 UNK         0.2987 
    102 H102      -55.9605  -25.3191   10.1155 H         1 UNK         0.0766 
    103 H103      -58.4042  -25.2835    9.7790 H         1 UNK         0.0798 
    104 H104      -57.8926  -23.7554   10.4726 H         1 UNK         0.0798 
    105 H105      -58.6800  -24.9653   11.4850 H         1 UNK         0.0798 
    106 H106      -55.0675  -24.2400   11.8127 H         1 UNK         0.3198 
    107 H107      -54.5355  -23.4503   13.7259 H         1 UNK         0.0843 
    108 H108      -56.8622  -23.1671   15.7044 H         1 UNK         0.0831 
    109 H109      -56.5306  -22.0775   14.3662 H         1 UNK         0.0831 
    110 H110      -55.3840  -22.2034   15.6898 H         1 UNK         0.0831 
    111 H111      -54.8985  -24.6235   16.2557 H         1 UNK         0.3133 
    112 H112      -53.0528  -26.0561   16.8809 H         1 UNK         0.0566 
    113 H113      -54.9934  -28.2933   16.0154 H         1 UNK         0.0814 
    114 H114      -55.3758  -26.9985   17.1379 H         1 UNK         0.0814 
    115 H115      -54.1768  -28.2044   17.5728 H         1 UNK         0.0814 
    116 H116      -52.3748  -27.6057   14.5889 H         1 UNK         0.3091 
    117 H117      -49.9395  -29.6130   16.0033 H         1 UNK         0.0702 
    118 H118      -49.8160  -29.6312   13.5288 H         1 UNK         0.0785 
    119 H119      -50.8786  -28.2404   13.4109 H         1 UNK         0.0785 
    120 H120      -51.4862  -29.7743   14.0352 H         1 UNK         0.0785 
    121 H121      -49.3342  -26.8421   15.0687 H         1 UNK         0.2998 
    122 H122      -46.3805  -26.7000   16.6451 H         1 UNK         0.0697 
    123 H123      -44.9085  -26.5718   14.6144 H         1 UNK         0.0825 
    124 H124      -46.0215  -27.6290   13.7461 H         1 UNK         0.0825 
    125 H125      -45.1516  -28.2255   15.1501 H         1 UNK         0.0825 
    126 H126      -47.4948  -25.6338   14.1088 H         1 UNK         0.3029 
    127 H127      -49.3457  -23.1267   15.7471 H         1 UNK         0.0897 
    128 H128      -46.6886  -22.5641   14.3170 H         1 UNK         0.0792 
    129 H129      -47.1140  -21.9992   15.9270 H         1 UNK         0.0792 
    130 H130      -48.0126  -21.4188   14.5357 H         1 UNK         0.0792 
    131 H131      -48.6503  -23.3436   13.0085 H         1 UNK         0.3086 
    132 H132      -50.6051  -26.1339   12.1218 H         1 UNK         0.0583 
    133 H133      -52.2292  -23.9772   12.5075 H         1 UNK         0.1020 
    134 H134      -51.3358  -23.3481   11.1670 H         1 UNK         0.1020 
    135 H135      -52.3076  -26.1290    8.4208 H         1 UNK         0.0694 
    136 H136      -50.8472  -25.5658    9.1825 H         1 UNK         0.0694 
    137 H137      -49.3516  -24.2517   10.4372 H         1 UNK         0.2989 
    138 H138      -46.0997  -24.6237   10.9799 H         1 UNK         0.1055 
    139 H139      -45.4373  -26.0398    9.0639 H         1 UNK         0.0806 
    140 H140      -47.0193  -26.8099    9.0529 H         1 UNK         0.0806 
    141 H141      -45.9396  -27.0394   10.4169 H         1 UNK         0.0806 
    142 H142      -47.6879  -24.5061    8.5000 H         1 UNK         0.3061 
    143 H143      -48.3177  -21.0707    8.7341 H         1 UNK         0.0734 
    144 H144      -45.9208  -22.1513    7.1502 H         1 UNK         0.0832 
    145 H145      -46.8167  -20.6738    6.7901 H         1 UNK         0.0832 
    146 H146      -45.8793  -20.7959    8.2684 H         1 UNK         0.0832 
    147 H147      -48.2027  -22.8447    6.4761 H         1 UNK         0.3156 
    148 H148      -51.3032  -24.4685    7.0069 H         1 UNK         0.0589 
    149 H149      -51.8915  -23.4650    4.8278 H         1 UNK         0.0808 
    150 H150      -50.6164  -22.2576    5.0010 H         1 UNK         0.0808 
    151 H151      -51.9962  -22.2512    6.0903 H         1 UNK         0.0808 
    152 H152      -49.6415  -24.5781    4.7616 H         1 UNK         0.3098 
    153 H153      -48.5027  -26.5019    4.3405 H         1 UNK         0.0720 
    154 H154      -46.7935  -24.7233    4.7851 H         1 UNK         0.0791 
    155 H155      -46.0146  -26.2566    4.4394 H         1 UNK         0.0791 
    156 H156      -46.1209  -25.6754    6.1015 H         1 UNK         0.0791 
    157 H157      -46.8301  -28.0434    6.0886 H         1 UNK         0.3028 
@<TRIPOS>BOND
     1    1    2 1    
     2    1   82 1    
     3    1   83 1    
     4    1   84 1    
     5    2    3 2    
     6    2    4 am   BACKBONE|DICT|INTERRES
     7    4    5 1    
     8    4   85 1    
     9    5    6 1    
    10    5   80 1    
    11    5   86 1    
    12    6    7 1    
    13    6   87 1    
    14    6   88 1    
    15    7    8 1    
    16    8    9 1    
    17    8   89 1    
    18    8   90 1    
    19    9   10 ar   
    20    9   14 ar   
    21   10   11 ar   
    22   10   91 1    
    23   11   12 ar   
    24   11   58 1    
    25   12   13 ar   
    26   12   92 1    
    27   13   14 ar   
    28   13   15 1    
    29   14   93 1    
    30   15   16 1    
    31   15   94 1    
    32   15   95 1    
    33   16   17 1    
    34   17   18 1    
    35   17   96 1    
    36   17   97 1    
    37   18   19 1    
    38   18   22 1    
    39   18   98 1    
    40   19   20 am   BACKBONE|DICT|INTERRES
    41   19   21 2    
    42   20   99 1    
    43   20  100 1    
    44   22   23 am   BACKBONE|DICT|INTERRES
    45   22  101 1    
    46   23   24 2    
    47   23   25 1    
    48   25   26 1    
    49   25   27 1    
    50   25  102 1    
    51   26  103 1    
    52   26  104 1    
    53   26  105 1    
    54   27   28 am   BACKBONE|DICT|INTERRES
    55   27  106 1    
    56   28   29 2    
    57   28   30 1    
    58   30   31 1    
    59   30   32 1    
    60   30  107 1    
    61   31  108 1    
    62   31  109 1    
    63   31  110 1    
    64   32   33 am   BACKBONE|DICT|INTERRES
    65   32  111 1    
    66   33   34 2    
    67   33   35 1    
    68   35   36 1    
    69   35   37 1    
    70   35  112 1    
    71   36  113 1    
    72   36  114 1    
    73   36  115 1    
    74   37   38 am   BACKBONE|DICT|INTERRES
    75   37  116 1    
    76   38   39 2    
    77   38   40 1    
    78   40   41 1    
    79   40   42 1    
    80   40  117 1    
    81   41  118 1    
    82   41  119 1    
    83   41  120 1    
    84   42   43 am   BACKBONE|DICT|INTERRES
    85   42  121 1    
    86   43   44 2    
    87   43   45 1    
    88   45   46 1    
    89   45   47 1    
    90   45  122 1    
    91   46  123 1    
    92   46  124 1    
    93   46  125 1    
    94   47   48 am   BACKBONE|DICT|INTERRES
    95   47  126 1    
    96   48   49 2    
    97   48   50 1    
    98   50   51 1    
    99   50   52 1    
   100   50  127 1    
   101   51  128 1    
   102   51  129 1    
   103   51  130 1    
   104   52   53 am   BACKBONE|DICT|INTERRES
   105   52  131 1    
   106   53   54 2    
   107   53   55 1    
   108   55   56 1    
   109   55   59 1    
   110   55  132 1    
   111   56   57 1    
   112   56  133 1    
   113   56  134 1    
   114   57   58 1    
   115   58  135 1    
   116   58  136 1    
   117   59   60 am   BACKBONE|DICT|INTERRES
   118   59  137 1    
   119   60   61 2    
   120   60   62 1    
   121   62   63 1    
   122   62   64 1    
   123   62  138 1    
   124   63  139 1    
   125   63  140 1    
   126   63  141 1    
   127   64   65 am   BACKBONE|DICT|INTERRES
   128   64  142 1    
   129   65   66 2    
   130   65   67 1    
   131   67   68 1    
   132   67   69 1    
   133   67  143 1    
   134   68  144 1    
   135   68  145 1    
   136   68  146 1    
   137   69   70 am   BACKBONE|DICT|INTERRES
   138   69  147 1    
   139   70   71 2    
   140   70   72 1    
   141   72   73 1    
   142   72   74 1    
   143   72  148 1    
   144   73  149 1    
   145   73  150 1    
   146   73  151 1    
   147   74   75 am   BACKBONE|DICT|INTERRES
   148   74  152 1    
   149   75   76 2    
   150   75   77 1    
   151   77   78 1    
   152   77   79 1    
   153   77  153 1    
   154   78  154 1    
   155   78  155 1    
   156   78  156 1    
   157   79   80 am   BACKBONE|DICT|INTERRES
   158   79  157 1    
   159   80   81 2    
@<TRIPOS>SUBSTRUCTURE
     1 UNK         1 GROUP             0       ****    0 ROOT    
