@<TRIPOS>MOLECULE
3R207
157   159    1
SMALL
USER_CHARGES


@<TRIPOS>ATOM
      1 CA        -52.1972  -23.1201    3.7806 C.3       0 UNK        -0.1975 
      2 C         -51.8761  -24.2760    4.7167 C.2       0 UNK         0.4852 
      3 O         -51.2801  -24.0565    5.7710 O.2       0 UNK        -0.5216 
      4 N         -52.2734  -25.4984    4.3381 N.am      1 UNK        -0.4461 
      5 CA        -52.0254  -26.7422    5.0777 C.3       1 UNK         0.0864 
      6 C6        -52.8551  -27.9158    4.4974 C.3       14 UNK        -0.0898 
      7 S7        -54.6334  -27.6931    4.8560 S.3       14 UNK        -0.2598 
      8 C8        -54.9840  -29.0122    6.0729 C.3       14 UNK         0.0286 
      9 C9        -53.9419  -29.0984    7.1818 C.ar      14 UNK        -0.0844 
     10 C10       -53.7081  -28.0098    8.0262 C.ar      14 UNK        -0.0881 
     11 C11       -52.6966  -28.0674    8.9880 C.ar      14 UNK        -0.0643 
     12 C12       -51.9354  -29.2313    9.1253 C.ar      14 UNK        -0.0930 
     13 C13       -52.1967  -30.3448    8.3226 C.ar      14 UNK        -0.0827 
     14 C14       -53.1949  -30.2683    7.3479 C.ar      14 UNK        -0.1249 
     15 C15       -51.4019  -31.6309    8.4918 C.3       14 UNK         0.0141 
     16 S16       -52.1300  -32.7073    9.7676 S.3       14 UNK        -0.2313 
     17 C17       -51.3860  -32.0354   11.2924 C.3       14 UNK        -0.0915 
     18 CA        -52.4275  -31.5613   12.3398 C.3       13 UNK         0.0968 
     19 C         -51.6959  -31.0942   13.6280 C.2       13 UNK         0.5732 
     20 N         -51.7260  -31.8881   14.6899 N.am      13 UNK        -0.7310 
     21 O         -51.0589  -30.0444   13.6478 O.2       13 UNK        -0.5035 
     22 N         -53.3246  -30.5290   11.7981 N.am      13 UNK        -0.4233 
     23 C         -54.3599  -29.9900   12.4539 C.2       13 UNK         0.4989 
     24 O         -54.7511  -30.3658   13.5619 O.2       13 UNK        -0.4996 
     25 CA        -55.1204  -28.8664   11.7291 C.3       12 UNK         0.0216 
     26 CB        -56.3421  -29.4261   10.9831 C.3       12 UNK        -0.1964 
     27 N         -55.5479  -27.8178   12.6595 N.am      12 UNK        -0.4276 
     28 C         -54.7082  -26.9759   13.2760 C.2       12 UNK         0.5020 
     29 O         -53.4958  -26.9270   13.0482 O.2       12 UNK        -0.5489 
     30 CA        -55.3160  -26.0350   14.3270 C.3       11 UNK         0.0294 
     31 CB        -55.8673  -26.8302   15.5292 C.3       11 UNK        -0.2019 
     32 N         -54.2573  -25.1324   14.7662 N.am      11 UNK        -0.4493 
     33 C         -54.3734  -24.0293   15.5138 C.2       11 UNK         0.4932 
     34 O         -55.4532  -23.5679   15.8872 O.2       11 UNK        -0.5029 
     35 CA        -53.0515  -23.3343   15.9109 C.3       10 UNK         0.0280 
     36 CB        -53.1932  -22.4188   17.1457 C.3       10 UNK        -0.1976 
     37 N         -51.9405  -24.2852   16.0737 N.am      10 UNK        -0.4242 
     38 C         -51.8703  -25.2947   16.9573 C.2       10 UNK         0.5072 
     39 O         -52.6864  -25.4790   17.8616 O.2       10 UNK        -0.5224 
     40 CA        -50.7297  -26.3087   16.7840 C.3       9 UNK         0.0343 
     41 CB        -51.1986  -27.4791   15.9042 C.3       9 UNK        -0.2003 
     42 N         -49.5050  -25.7433   16.2160 N.am      9 UNK        -0.4272 
     43 C         -48.6090  -25.0311   16.9127 C.2       9 UNK         0.4988 
     44 O         -48.7630  -24.6952   18.0876 O.2       9 UNK        -0.5108 
     45 CA        -47.3064  -24.6573   16.1873 C.3       8 UNK         0.0248 
     46 CB        -46.3975  -25.8868   16.0188 C.3       8 UNK        -0.2001 
     47 N         -47.5572  -24.0512   14.8811 N.am      8 UNK        -0.4140 
     48 C         -47.9225  -22.7750   14.7002 C.2       8 UNK         0.5028 
     49 O         -48.0422  -21.9584   15.6146 O.2       8 UNK        -0.5428 
     50 CA        -48.2033  -22.3259   13.2550 C.3       7 UNK         0.0264 
     51 CB        -46.9148  -21.8097   12.5945 C.3       7 UNK        -0.1988 
     52 N         -48.7890  -23.3729   12.4144 N.am      7 UNK        -0.4454 
     53 C         -49.9781  -23.9532   12.6337 C.2       7 UNK         0.5027 
     54 O         -50.7235  -23.6583   13.5673 O.2       7 UNK        -0.5083 
     55 CA        -50.3838  -25.0869   11.6748 C.3       6 UNK         0.0844 
     56 C56       -50.9712  -24.4904   10.3684 C.3       14 UNK        -0.0967 
     57 S57       -51.3323  -25.6956    9.0503 S.3       14 UNK        -0.2604 
     58 C58       -52.4266  -26.8737    9.8839 C.3       14 UNK         0.0134 
     59 N         -49.2912  -26.0434   11.4541 N.am      6 UNK        -0.4116 
     60 C         -48.6799  -26.7439   12.4233 C.2       5 UNK         0.5034 
     61 O         -48.9591  -26.6575   13.6178 O.2       5 UNK        -0.5045 
     62 CA        -47.5151  -27.6474   12.0031 C.3       5 UNK         0.0224 
     63 CB        -48.0292  -28.9875   11.4499 C.3       5 UNK        -0.1978 
     64 N         -46.6672  -26.9767   11.0178 N.am      5 UNK        -0.4737 
     65 C         -45.7885  -26.0105   11.3204 C.2       4 UNK         0.5027 
     66 O         -45.5351  -25.6556   12.4717 O.2       4 UNK        -0.5211 
     67 CA        -45.0953  -25.2991   10.1438 C.3       4 UNK         0.0297 
     68 CB        -43.8148  -26.0476    9.7418 C.3       4 UNK        -0.1993 
     69 N         -45.9579  -25.1396    8.9690 N.am      4 UNK        -0.4486 
     70 C         -47.0669  -24.3878    8.9402 C.2       3 UNK         0.4961 
     71 O         -47.4648  -23.7190    9.8943 O.2       3 UNK        -0.5105 
     72 CA        -47.8979  -24.4096    7.6443 C.3       3 UNK         0.0299 
     73 CB        -47.3805  -23.3502    6.6590 C.3       3 UNK        -0.1972 
     74 N         -48.0044  -25.7043    6.9552 N.am      3 UNK        -0.4305 
     75 C         -48.3061  -26.8845    7.5158 C.2       2 UNK         0.5006 
     76 O         -48.3466  -27.0841    8.7297 O.2       2 UNK        -0.5106 
     77 CA        -48.7153  -28.0076    6.5539 C.3       2 UNK         0.0296 
     78 CB        -48.5729  -29.4021    7.1898 C.3       2 UNK        -0.2002 
     79 N         -50.1152  -27.7820    6.1994 N.am      2 UNK        -0.4032 
     80 C         -50.5225  -27.0866    5.1304 C.2       1 UNK         0.5000 
     81 O         -49.7677  -26.7213    4.2235 O.2       1 UNK        -0.5238 
     82 H82       -52.7349  -23.4510    2.8922 H         1 UNK         0.0889 
     83 H83       -51.2773  -22.6328    3.4586 H         1 UNK         0.0889 
     84 H84       -52.8126  -22.3818    4.2942 H         1 UNK         0.0889 
     85 H85       -52.7524  -25.6101    3.4565 H         1 UNK         0.3028 
     86 H86       -52.3408  -26.5633    6.1074 H         1 UNK         0.0864 
     87 H87       -52.7205  -27.9853    3.4166 H         1 UNK         0.0720 
     88 H88       -52.5242  -28.8765    4.8952 H         1 UNK         0.0720 
     89 H89       -55.0582  -29.9615    5.5402 H         1 UNK         0.0814 
     90 H90       -55.9643  -28.8343    6.5167 H         1 UNK         0.0814 
     91 H91       -54.2886  -27.1045    7.9092 H         1 UNK         0.1469 
     92 H92       -51.1465  -29.2685    9.8640 H         1 UNK         0.1381 
     93 H93       -53.3837  -31.1216    6.7106 H         1 UNK         0.1206 
     94 H94       -50.3602  -31.4175    8.7325 H         1 UNK         0.0813 
     95 H95       -51.3814  -32.1783    7.5482 H         1 UNK         0.0813 
     96 H96       -50.6974  -31.2261   11.0459 H         1 UNK         0.0638 
     97 H97       -50.7670  -32.8280   11.7170 H         1 UNK         0.0638 
     98 H98       -53.0558  -32.4169   12.5952 H         1 UNK         0.0568 
     99 H99       -51.2384  -31.6033   15.5243 H         1 UNK         0.3450 
    100 H100      -52.2388  -32.7558   14.6799 H         1 UNK         0.3450 
    101 H101      -53.0915  -30.1871   10.8772 H         1 UNK         0.2987 
    102 H102      -54.4572  -28.4110   10.9970 H         1 UNK         0.0766 
    103 H103      -56.8654  -28.6430   10.4341 H         1 UNK         0.0798 
    104 H104      -57.0531  -29.8948   11.6648 H         1 UNK         0.0798 
    105 H105      -56.0401  -30.1811   10.2555 H         1 UNK         0.0798 
    106 H106      -56.5218  -27.8187   12.9255 H         1 UNK         0.3198 
    107 H107      -56.1125  -25.4524   13.8602 H         1 UNK         0.0843 
    108 H108      -56.6576  -27.5173   15.2260 H         1 UNK         0.0831 
    109 H109      -56.2939  -26.1714   16.2855 H         1 UNK         0.0831 
    110 H110      -55.0856  -27.4222   16.0075 H         1 UNK         0.0831 
    111 H111      -53.3416  -25.4210   14.4387 H         1 UNK         0.3133 
    112 H112      -52.7826  -22.6991   15.0662 H         1 UNK         0.0566 
    113 H113      -52.2440  -21.9473   17.4000 H         1 UNK         0.0814 
    114 H114      -53.9112  -21.6197   16.9580 H         1 UNK         0.0814 
    115 H115      -53.5418  -22.9669   18.0212 H         1 UNK         0.0814 
    116 H116      -51.2330  -24.2280   15.3453 H         1 UNK         0.3091 
    117 H117      -50.4955  -26.7086   17.7730 H         1 UNK         0.0702 
    118 H118      -50.4404  -28.2603   15.8456 H         1 UNK         0.0785 
    119 H119      -51.4185  -27.1579   14.8851 H         1 UNK         0.0785 
    120 H120      -52.1052  -27.9365   16.3029 H         1 UNK         0.0785 
    121 H121      -49.2914  -26.0019   15.2530 H         1 UNK         0.2998 
    122 H122      -46.7733  -23.9347   16.8092 H         1 UNK         0.0697 
    123 H123      -46.8566  -26.6525   15.3926 H         1 UNK         0.0825 
    124 H124      -46.1770  -26.3439   16.9843 H         1 UNK         0.0825 
    125 H125      -45.4450  -25.6145   15.5634 H         1 UNK         0.0825 
    126 H126      -47.4852  -24.6550   14.0733 H         1 UNK         0.3029 
    127 H127      -48.9192  -21.5026   13.3027 H         1 UNK         0.0897 
    128 H128      -47.1148  -21.3966   11.6055 H         1 UNK         0.0792 
    129 H129      -46.4580  -21.0183   13.1903 H         1 UNK         0.0792 
    130 H130      -46.1755  -22.6041   12.4805 H         1 UNK         0.0792 
    131 H131      -48.2590  -23.6412   11.5864 H         1 UNK         0.3086 
    132 H132      -51.1777  -25.6377   12.1815 H         1 UNK         0.0583 
    133 H133      -51.8921  -23.9466   10.5880 H         1 UNK         0.1020 
    134 H134      -50.2868  -23.7547    9.9418 H         1 UNK         0.1020 
    135 H135      -51.9724  -27.2198   10.8121 H         1 UNK         0.0694 
    136 H136      -53.3591  -26.3765   10.1549 H         1 UNK         0.0694 
    137 H137      -49.0083  -26.1977   10.4918 H         1 UNK         0.2989 
    138 H138      -46.9167  -27.8575   12.8927 H         1 UNK         0.1055 
    139 H139      -48.6063  -29.5203   12.2072 H         1 UNK         0.0806 
    140 H140      -47.2060  -29.6367   11.1521 H         1 UNK         0.0806 
    141 H141      -48.6805  -28.8541   10.5866 H         1 UNK         0.0806 
    142 H142      -46.9050  -27.1349   10.0430 H         1 UNK         0.3061 
    143 H143      -44.8136  -24.3009   10.4863 H         1 UNK         0.0734 
    144 H144      -43.1449  -26.1583   10.5959 H         1 UNK         0.0832 
    145 H145      -44.0318  -27.0486    9.3669 H         1 UNK         0.0832 
    146 H146      -43.2651  -25.5095    8.9694 H         1 UNK         0.0832 
    147 H147      -45.7176  -25.6684    8.1432 H         1 UNK         0.3156 
    148 H148      -48.9160  -24.1303    7.9199 H         1 UNK         0.0589 
    149 H149      -46.3904  -23.6022    6.2773 H         1 UNK         0.0808 
    150 H150      -48.0530  -23.2400    5.8078 H         1 UNK         0.0808 
    151 H151      -47.3074  -22.3726    7.1380 H         1 UNK         0.0808 
    152 H152      -48.0327  -25.6576    5.9458 H         1 UNK         0.3098 
    153 H153      -48.0760  -27.9691    5.6695 H         1 UNK         0.0720 
    154 H154      -48.8974  -30.1859    6.5053 H         1 UNK         0.0791 
    155 H155      -49.1591  -29.4916    8.1037 H         1 UNK         0.0791 
    156 H156      -47.5337  -29.6050    7.4510 H         1 UNK         0.0791 
    157 H157      -50.7926  -28.0134    6.9145 H         1 UNK         0.3028 
@<TRIPOS>BOND
     1    1    2 1    
     2    1   82 1    
     3    1   83 1    
     4    1   84 1    
     5    2    3 2    
     6    2    4 am   BACKBONE|DICT|INTERRES
     7    4    5 1    
     8    4   85 1    
     9    5    6 1    
    10    5   80 1    
    11    5   86 1    
    12    6    7 1    
    13    6   87 1    
    14    6   88 1    
    15    7    8 1    
    16    8    9 1    
    17    8   89 1    
    18    8   90 1    
    19    9   10 ar   
    20    9   14 ar   
    21   10   11 ar   
    22   10   91 1    
    23   11   12 ar   
    24   11   58 1    
    25   12   13 ar   
    26   12   92 1    
    27   13   14 ar   
    28   13   15 1    
    29   14   93 1    
    30   15   16 1    
    31   15   94 1    
    32   15   95 1    
    33   16   17 1    
    34   17   18 1    
    35   17   96 1    
    36   17   97 1    
    37   18   19 1    
    38   18   22 1    
    39   18   98 1    
    40   19   20 am   BACKBONE|DICT|INTERRES
    41   19   21 2    
    42   20   99 1    
    43   20  100 1    
    44   22   23 am   BACKBONE|DICT|INTERRES
    45   22  101 1    
    46   23   24 2    
    47   23   25 1    
    48   25   26 1    
    49   25   27 1    
    50   25  102 1    
    51   26  103 1    
    52   26  104 1    
    53   26  105 1    
    54   27   28 am   BACKBONE|DICT|INTERRES
    55   27  106 1    
    56   28   29 2    
    57   28   30 1    
    58   30   31 1    
    59   30   32 1    
    60   30  107 1    
    61   31  108 1    
    62   31  109 1    
    63   31  110 1    
    64   32   33 am   BACKBONE|DICT|INTERRES
    65   32  111 1    
    66   33   34 2    
    67   33   35 1    
    68   35   36 1    
    69   35   37 1    
    70   35  112 1    
    71   36  113 1    
    72   36  114 1    
    73   36  115 1    
    74   37   38 am   BACKBONE|DICT|INTERRES
    75   37  116 1    
    76   38   39 2    
    77   38   40 1    
    78   40   41 1    
    79   40   42 1    
    80   40  117 1    
    81   41  118 1    
    82   41  119 1    
    83   41  120 1    
    84   42   43 am   BACKBONE|DICT|INTERRES
    85   42  121 1    
    86   43   44 2    
    87   43   45 1    
    88   45   46 1    
    89   45   47 1    
    90   45  122 1    
    91   46  123 1    
    92   46  124 1    
    93   46  125 1    
    94   47   48 am   BACKBONE|DICT|INTERRES
    95   47  126 1    
    96   48   49 2    
    97   48   50 1    
    98   50   51 1    
    99   50   52 1    
   100   50  127 1    
   101   51  128 1    
   102   51  129 1    
   103   51  130 1    
   104   52   53 am   BACKBONE|DICT|INTERRES
   105   52  131 1    
   106   53   54 2    
   107   53   55 1    
   108   55   56 1    
   109   55   59 1    
   110   55  132 1    
   111   56   57 1    
   112   56  133 1    
   113   56  134 1    
   114   57   58 1    
   115   58  135 1    
   116   58  136 1    
   117   59   60 am   BACKBONE|DICT|INTERRES
   118   59  137 1    
   119   60   61 2    
   120   60   62 1    
   121   62   63 1    
   122   62   64 1    
   123   62  138 1    
   124   63  139 1    
   125   63  140 1    
   126   63  141 1    
   127   64   65 am   BACKBONE|DICT|INTERRES
   128   64  142 1    
   129   65   66 2    
   130   65   67 1    
   131   67   68 1    
   132   67   69 1    
   133   67  143 1    
   134   68  144 1    
   135   68  145 1    
   136   68  146 1    
   137   69   70 am   BACKBONE|DICT|INTERRES
   138   69  147 1    
   139   70   71 2    
   140   70   72 1    
   141   72   73 1    
   142   72   74 1    
   143   72  148 1    
   144   73  149 1    
   145   73  150 1    
   146   73  151 1    
   147   74   75 am   BACKBONE|DICT|INTERRES
   148   74  152 1    
   149   75   76 2    
   150   75   77 1    
   151   77   78 1    
   152   77   79 1    
   153   77  153 1    
   154   78  154 1    
   155   78  155 1    
   156   78  156 1    
   157   79   80 am   BACKBONE|DICT|INTERRES
   158   79  157 1    
   159   80   81 2    
@<TRIPOS>SUBSTRUCTURE
     1 UNK         1 GROUP             0       ****    0 ROOT    
