@<TRIPOS>MOLECULE
3R207
157   159    1
SMALL
USER_CHARGES


@<TRIPOS>ATOM
      1 CA        -50.3730  -27.6728    9.3642 C.3       0 UNK        -0.1975 
      2 C         -49.3781  -28.4397    8.5091 C.2       0 UNK         0.4852 
      3 O         -48.3199  -28.8313    9.0034 O.2       0 UNK        -0.5216 
      4 N         -49.7138  -28.6637    7.2316 N.am      1 UNK        -0.4461 
      5 CA        -48.9049  -29.3924    6.2495 C.3       1 UNK         0.0864 
      6 C6        -49.6440  -29.5493    4.8991 C.3       14 UNK        -0.0898 
      7 S7        -51.0665  -30.6801    5.0308 S.3       14 UNK        -0.2598 
      8 C8        -52.4699  -29.5925    4.6147 C.3       14 UNK         0.0286 
      9 C9        -52.9173  -28.6900    5.7613 C.ar      14 UNK        -0.0844 
     10 C10       -53.2113  -27.3443    5.5160 C.ar      14 UNK        -0.0881 
     11 C11       -53.7384  -26.5313    6.5255 C.ar      14 UNK        -0.0643 
     12 C12       -53.9419  -27.0696    7.8009 C.ar      14 UNK        -0.0930 
     13 C13       -53.6317  -28.4059    8.0667 C.ar      14 UNK        -0.0827 
     14 C14       -53.1286  -29.2120    7.0422 C.ar      14 UNK        -0.1249 
     15 C15       -53.8615  -28.9880    9.4531 C.3       14 UNK         0.0141 
     16 S16       -55.5675  -29.5902    9.6166 S.3       14 UNK        -0.2313 
     17 C17       -55.4898  -30.5505   11.1648 C.3       14 UNK        -0.0915 
     18 CA        -56.2991  -29.8802   12.3086 C.3       13 UNK         0.0968 
     19 C         -56.6959  -30.8965   13.4224 C.2       13 UNK         0.5732 
     20 N         -56.5235  -30.6051   14.7058 N.am      13 UNK        -0.7310 
     21 O         -57.1938  -31.9782   13.1180 O.2       13 UNK        -0.5035 
     22 N         -55.6146  -28.6770   12.8107 N.am      13 UNK        -0.4233 
     23 C         -56.2296  -27.5674   13.2358 C.2       13 UNK         0.4989 
     24 O         -57.4490  -27.3949   13.1803 O.2       13 UNK        -0.4996 
     25 CA        -55.3189  -26.4789   13.8448 C.3       12 UNK         0.0216 
     26 CB        -56.1130  -25.3197   14.4816 C.3       12 UNK        -0.1964 
     27 N         -54.3285  -26.9893   14.8069 N.am      12 UNK        -0.4276 
     28 C         -54.5527  -27.7937   15.8593 C.2       12 UNK         0.5020 
     29 O         -55.6535  -28.2604   16.1508 O.2       12 UNK        -0.5489 
     30 CA        -53.3415  -28.1573   16.7270 C.3       11 UNK         0.0294 
     31 CB        -52.5134  -29.2634   16.0522 C.3       11 UNK        -0.2019 
     32 N         -52.4910  -26.9934   16.9655 N.am      11 UNK        -0.4493 
     33 C         -52.5156  -26.2293   18.0636 C.2       11 UNK         0.4932 
     34 O         -53.2681  -26.4258   19.0198 O.2       11 UNK        -0.5029 
     35 CA        -51.5120  -25.0564   18.0917 C.3       10 UNK         0.0280 
     36 CB        -51.3850  -24.4032   19.4842 C.3       10 UNK        -0.1976 
     37 N         -50.1889  -25.4256   17.5688 N.am      10 UNK        -0.4242 
     38 C         -49.3751  -26.4017   18.0023 C.2       10 UNK         0.5072 
     39 O         -49.6114  -27.1081   18.9843 O.2       10 UNK        -0.5224 
     40 CA        -48.0937  -26.6442   17.1738 C.3       9 UNK         0.0343 
     41 CB        -47.3044  -27.8801   17.6461 C.3       9 UNK        -0.2003 
     42 N         -48.3903  -26.7925   15.7447 N.am      9 UNK        -0.4272 
     43 C         -48.6175  -25.7814   14.8968 C.2       9 UNK         0.4988 
     44 O         -48.5334  -24.5969   15.2297 O.2       9 UNK        -0.5108 
     45 CA        -49.0576  -26.1284   13.4595 C.3       8 UNK         0.0248 
     46 CB        -49.4065  -27.6180   13.2408 C.3       8 UNK        -0.2001 
     47 N         -50.1600  -25.2633   13.0241 N.am      8 UNK        -0.4140 
     48 C         -51.3490  -25.1194   13.6323 C.2       8 UNK         0.5028 
     49 O         -51.7306  -25.8208   14.5706 O.2       8 UNK        -0.5428 
     50 CA        -52.2746  -23.9968   13.1303 C.3       7 UNK         0.0264 
     51 CB        -52.0563  -22.7231   13.9614 C.3       7 UNK        -0.1988 
     52 N         -52.0985  -23.6895   11.7115 N.am      7 UNK        -0.4454 
     53 C         -52.3893  -24.5361   10.7133 C.2       7 UNK         0.5027 
     54 O         -52.9500  -25.6187   10.8861 O.2       7 UNK        -0.5083 
     55 CA        -51.9738  -24.1282    9.2828 C.3       6 UNK         0.0844 
     56 C56       -53.2079  -23.6846    8.4619 C.3       14 UNK        -0.0967 
     57 S57       -52.9080  -23.8613    6.6714 S.3       14 UNK        -0.2604 
     58 C58       -54.1612  -25.1008    6.2077 C.3       14 UNK         0.0134 
     59 N         -50.9062  -23.1184    9.2251 N.am      6 UNK        -0.4116 
     60 C         -49.6727  -23.2368    9.7341 C.2       5 UNK         0.5034 
     61 O         -49.2735  -24.2143   10.3732 O.2       5 UNK        -0.5045 
     62 CA        -48.7541  -22.0246    9.5599 C.3       5 UNK         0.0224 
     63 CB        -48.9971  -20.9893   10.6729 C.3       5 UNK        -0.1978 
     64 N         -47.3695  -22.4793    9.6076 N.am      5 UNK        -0.4737 
     65 C         -46.3505  -21.9315    8.9377 C.2       4 UNK         0.5027 
     66 O         -46.4556  -20.9125    8.2539 O.2       4 UNK        -0.5211 
     67 CA        -44.9774  -22.6243    9.0400 C.3       4 UNK         0.0297 
     68 CB        -44.0525  -21.8372    9.9832 C.3       4 UNK        -0.1993 
     69 N         -45.0274  -24.0244    9.4791 N.am      4 UNK        -0.4486 
     70 C         -45.5727  -25.0322    8.7850 C.2       3 UNK         0.4961 
     71 O         -46.1486  -24.8893    7.7042 O.2       3 UNK        -0.5105 
     72 CA        -45.4768  -26.4223    9.4412 C.3       3 UNK         0.0299 
     73 CB        -46.5297  -26.5628   10.5514 C.3       3 UNK        -0.1972 
     74 N         -45.6385  -27.5138    8.4760 N.am      3 UNK        -0.4305 
     75 C         -44.7555  -27.7998    7.5054 C.2       2 UNK         0.5006 
     76 O         -43.6799  -27.2121    7.3741 O.2       2 UNK        -0.5106 
     77 CA        -45.0886  -28.9406    6.5239 C.3       2 UNK         0.0296 
     78 CB        -44.1698  -30.1495    6.7720 C.3       2 UNK        -0.2002 
     79 N         -46.4808  -29.3895    6.5762 N.am      2 UNK        -0.4032 
     80 C         -47.5241  -28.7347    6.0490 C.2       1 UNK         0.5000 
     81 O         -47.4350  -27.6690    5.4354 O.2       1 UNK        -0.5238 
     82 H82       -50.8028  -28.3284   10.1202 H         1 UNK         0.0889 
     83 H83       -49.8842  -26.8399    9.8677 H         1 UNK         0.0889 
     84 H84       -51.1864  -27.2724    8.7635 H         1 UNK         0.0889 
     85 H85       -50.6060  -28.3337    6.8893 H         1 UNK         0.3028 
     86 H86       -48.7409  -30.3934    6.6549 H         1 UNK         0.0864 
     87 H87       -49.9643  -28.5777    4.5177 H         1 UNK         0.0720 
     88 H88       -48.9778  -29.9671    4.1416 H         1 UNK         0.0720 
     89 H89       -53.3156  -30.2212    4.3332 H         1 UNK         0.0814 
     90 H90       -52.2201  -29.0089    3.7271 H         1 UNK         0.0814 
     91 H91       -53.0747  -26.9376    4.5230 H         1 UNK         0.1469 
     92 H92       -54.3645  -26.4627    8.5883 H         1 UNK         0.1381 
     93 H93       -52.9220  -30.2555    7.2376 H         1 UNK         0.1206 
     94 H94       -53.1623  -29.8063    9.6320 H         1 UNK         0.0813 
     95 H95       -53.6650  -28.2358   10.2189 H         1 UNK         0.0813 
     96 H96       -54.4539  -30.7144   11.4657 H         1 UNK         0.0638 
     97 H97       -55.8900  -31.5370   10.9242 H         1 UNK         0.0638 
     98 H98       -57.2561  -29.5750   11.8813 H         1 UNK         0.0568 
     99 H99       -56.7994  -31.2856   15.3950 H         1 UNK         0.3450 
    100 H100      -56.1832  -29.6988   15.0125 H         1 UNK         0.3450 
    101 H101      -54.6143  -28.7469   12.9178 H         1 UNK         0.2987 
    102 H102      -54.7553  -26.0741   13.0041 H         1 UNK         0.0766 
    103 H103      -55.4481  -24.5385   14.8500 H         1 UNK         0.0798 
    104 H104      -56.7214  -25.6636   15.3190 H         1 UNK         0.0798 
    105 H105      -56.7842  -24.8571   13.7569 H         1 UNK         0.0798 
    106 H106      -53.3755  -26.6560   14.6707 H         1 UNK         0.3198 
    107 H107      -53.7131  -28.5469   17.6775 H         1 UNK         0.0843 
    108 H108      -53.1201  -30.1537   15.8800 H         1 UNK         0.0831 
    109 H109      -51.6710  -29.5614   16.6768 H         1 UNK         0.0831 
    110 H110      -52.1180  -28.9460   15.0869 H         1 UNK         0.0831 
    111 H111      -51.9180  -26.6787   16.1847 H         1 UNK         0.3133 
    112 H112      -51.9085  -24.3037   17.4087 H         1 UNK         0.0566 
    113 H113      -50.6919  -23.5622   19.4663 H         1 UNK         0.0814 
    114 H114      -52.3475  -24.0210   19.8264 H         1 UNK         0.0814 
    115 H115      -51.0323  -25.1130   20.2332 H         1 UNK         0.0814 
    116 H116      -49.8829  -24.9197   16.7435 H         1 UNK         0.3091 
    117 H117      -47.4529  -25.7711   17.3151 H         1 UNK         0.0702 
    118 H118      -46.3871  -28.0087   17.0712 H         1 UNK         0.0785 
    119 H119      -47.8915  -28.7946   17.5520 H         1 UNK         0.0785 
    120 H120      -47.0156  -27.7835   18.6937 H         1 UNK         0.0785 
    121 H121      -48.5164  -27.7362   15.4086 H         1 UNK         0.2998 
    122 H122      -48.2122  -25.8842   12.8177 H         1 UNK         0.0697 
    123 H123      -50.2131  -27.9529   13.8930 H         1 UNK         0.0825 
    124 H124      -48.5425  -28.2601   13.4157 H         1 UNK         0.0825 
    125 H125      -49.7224  -27.7951   12.2143 H         1 UNK         0.0825 
    126 H126      -49.9469  -24.6663   12.2320 H         1 UNK         0.3029 
    127 H127      -53.3042  -24.3221   13.2800 H         1 UNK         0.0897 
    128 H128      -52.7535  -21.9358   13.6741 H         1 UNK         0.0792 
    129 H129      -52.2128  -22.9199   15.0231 H         1 UNK         0.0792 
    130 H130      -51.0429  -22.3348   13.8491 H         1 UNK         0.0792 
    131 H131      -51.6602  -22.8095   11.4842 H         1 UNK         0.3086 
    132 H132      -51.5692  -25.0320    8.8271 H         1 UNK         0.0583 
    133 H133      -53.4624  -22.6450    8.6767 H         1 UNK         0.1020 
    134 H134      -54.0989  -24.2527    8.7315 H         1 UNK         0.1020 
    135 H135      -55.1102  -24.8727    6.6953 H         1 UNK         0.0694 
    136 H136      -54.3526  -25.0039    5.1379 H         1 UNK         0.0694 
    137 H137      -51.1375  -22.2752    8.7199 H         1 UNK         0.2989 
    138 H138      -48.9574  -21.5744    8.5852 H         1 UNK         0.1055 
    139 H139      -50.0242  -20.6228   10.6554 H         1 UNK         0.0806 
    140 H140      -48.3456  -20.1231   10.5555 H         1 UNK         0.0806 
    141 H141      -48.8150  -21.4109   11.6625 H         1 UNK         0.0806 
    142 H142      -47.2280  -23.3522   10.1000 H         1 UNK         0.3061 
    143 H143      -44.5374  -22.6085    8.0405 H         1 UNK         0.0734 
    144 H144      -43.9636  -20.7974    9.6648 H         1 UNK         0.0832 
    145 H145      -44.4294  -21.8318   11.0068 H         1 UNK         0.0832 
    146 H146      -43.0457  -22.2552    9.9956 H         1 UNK         0.0832 
    147 H147      -44.5864  -24.2318   10.3641 H         1 UNK         0.3156 
    148 H148      -44.4866  -26.5225    9.8911 H         1 UNK         0.0589 
    149 H149      -47.5376  -26.3964   10.1711 H         1 UNK         0.0808 
    150 H150      -46.5031  -27.5525   11.0080 H         1 UNK         0.0808 
    151 H151      -46.3574  -25.8354   11.3448 H         1 UNK         0.0808 
    152 H152      -46.5113  -28.0308    8.5197 H         1 UNK         0.3098 
    153 H153      -44.8893  -28.5648    5.5179 H         1 UNK         0.0720 
    154 H154      -44.3414  -30.9369    6.0377 H         1 UNK         0.0791 
    155 H155      -44.3216  -30.5751    7.7649 H         1 UNK         0.0791 
    156 H156      -43.1192  -29.8650    6.6974 H         1 UNK         0.0791 
    157 H157      -46.6582  -30.2359    7.0987 H         1 UNK         0.3028 
@<TRIPOS>BOND
     1    1    2 1    
     2    1   82 1    
     3    1   83 1    
     4    1   84 1    
     5    2    3 2    
     6    2    4 am   BACKBONE|DICT|INTERRES
     7    4    5 1    
     8    4   85 1    
     9    5    6 1    
    10    5   80 1    
    11    5   86 1    
    12    6    7 1    
    13    6   87 1    
    14    6   88 1    
    15    7    8 1    
    16    8    9 1    
    17    8   89 1    
    18    8   90 1    
    19    9   10 ar   
    20    9   14 ar   
    21   10   11 ar   
    22   10   91 1    
    23   11   12 ar   
    24   11   58 1    
    25   12   13 ar   
    26   12   92 1    
    27   13   14 ar   
    28   13   15 1    
    29   14   93 1    
    30   15   16 1    
    31   15   94 1    
    32   15   95 1    
    33   16   17 1    
    34   17   18 1    
    35   17   96 1    
    36   17   97 1    
    37   18   19 1    
    38   18   22 1    
    39   18   98 1    
    40   19   20 am   BACKBONE|DICT|INTERRES
    41   19   21 2    
    42   20   99 1    
    43   20  100 1    
    44   22   23 am   BACKBONE|DICT|INTERRES
    45   22  101 1    
    46   23   24 2    
    47   23   25 1    
    48   25   26 1    
    49   25   27 1    
    50   25  102 1    
    51   26  103 1    
    52   26  104 1    
    53   26  105 1    
    54   27   28 am   BACKBONE|DICT|INTERRES
    55   27  106 1    
    56   28   29 2    
    57   28   30 1    
    58   30   31 1    
    59   30   32 1    
    60   30  107 1    
    61   31  108 1    
    62   31  109 1    
    63   31  110 1    
    64   32   33 am   BACKBONE|DICT|INTERRES
    65   32  111 1    
    66   33   34 2    
    67   33   35 1    
    68   35   36 1    
    69   35   37 1    
    70   35  112 1    
    71   36  113 1    
    72   36  114 1    
    73   36  115 1    
    74   37   38 am   BACKBONE|DICT|INTERRES
    75   37  116 1    
    76   38   39 2    
    77   38   40 1    
    78   40   41 1    
    79   40   42 1    
    80   40  117 1    
    81   41  118 1    
    82   41  119 1    
    83   41  120 1    
    84   42   43 am   BACKBONE|DICT|INTERRES
    85   42  121 1    
    86   43   44 2    
    87   43   45 1    
    88   45   46 1    
    89   45   47 1    
    90   45  122 1    
    91   46  123 1    
    92   46  124 1    
    93   46  125 1    
    94   47   48 am   BACKBONE|DICT|INTERRES
    95   47  126 1    
    96   48   49 2    
    97   48   50 1    
    98   50   51 1    
    99   50   52 1    
   100   50  127 1    
   101   51  128 1    
   102   51  129 1    
   103   51  130 1    
   104   52   53 am   BACKBONE|DICT|INTERRES
   105   52  131 1    
   106   53   54 2    
   107   53   55 1    
   108   55   56 1    
   109   55   59 1    
   110   55  132 1    
   111   56   57 1    
   112   56  133 1    
   113   56  134 1    
   114   57   58 1    
   115   58  135 1    
   116   58  136 1    
   117   59   60 am   BACKBONE|DICT|INTERRES
   118   59  137 1    
   119   60   61 2    
   120   60   62 1    
   121   62   63 1    
   122   62   64 1    
   123   62  138 1    
   124   63  139 1    
   125   63  140 1    
   126   63  141 1    
   127   64   65 am   BACKBONE|DICT|INTERRES
   128   64  142 1    
   129   65   66 2    
   130   65   67 1    
   131   67   68 1    
   132   67   69 1    
   133   67  143 1    
   134   68  144 1    
   135   68  145 1    
   136   68  146 1    
   137   69   70 am   BACKBONE|DICT|INTERRES
   138   69  147 1    
   139   70   71 2    
   140   70   72 1    
   141   72   73 1    
   142   72   74 1    
   143   72  148 1    
   144   73  149 1    
   145   73  150 1    
   146   73  151 1    
   147   74   75 am   BACKBONE|DICT|INTERRES
   148   74  152 1    
   149   75   76 2    
   150   75   77 1    
   151   77   78 1    
   152   77   79 1    
   153   77  153 1    
   154   78  154 1    
   155   78  155 1    
   156   78  156 1    
   157   79   80 am   BACKBONE|DICT|INTERRES
   158   79  157 1    
   159   80   81 2    
@<TRIPOS>SUBSTRUCTURE
     1 UNK         1 GROUP             0       ****    0 ROOT    
