@<TRIPOS>MOLECULE
3R207
157   159    1
SMALL
USER_CHARGES


@<TRIPOS>ATOM
      1 CA        -49.7690  -29.8211    7.5269 C.3       0 UNK        -0.1975 
      2 C         -49.8164  -28.8177    6.3874 C.2       0 UNK         0.4852 
      3 O         -49.0661  -28.9743    5.4229 O.2       0 UNK        -0.5216 
      4 N         -50.6919  -27.8035    6.4809 N.am      1 UNK        -0.4461 
      5 CA        -50.9478  -26.7930    5.4454 C.3       1 UNK         0.0864 
      6 C6        -52.1226  -25.8435    5.8092 C.3       14 UNK        -0.0898 
      7 S7        -51.9220  -24.8960    7.3619 S.3       14 UNK        -0.2598 
      8 C8        -53.3150  -25.4837    8.3729 C.3       14 UNK         0.0286 
      9 C9        -53.1003  -26.9072    8.8603 C.ar      14 UNK        -0.0844 
     10 C10       -52.1382  -27.1725    9.8377 C.ar      14 UNK        -0.0881 
     11 C11       -51.9506  -28.4714   10.3155 C.ar      14 UNK        -0.0643 
     12 C12       -52.7308  -29.5114    9.8049 C.ar      14 UNK        -0.0930 
     13 C13       -53.6895  -29.2594    8.8194 C.ar      14 UNK        -0.0827 
     14 C14       -53.8725  -27.9550    8.3521 C.ar      14 UNK        -0.1249 
     15 C15       -54.5152  -30.4020    8.2502 C.3       14 UNK         0.0141 
     16 S16       -55.6091  -31.1460    9.4988 S.3       14 UNK        -0.2313 
     17 C17       -56.8564  -29.8356    9.7656 C.3       14 UNK        -0.0915 
     18 CA        -56.9195  -29.2906   11.2188 C.3       13 UNK         0.0968 
     19 C         -57.2708  -30.4003   12.2561 C.2       13 UNK         0.5732 
     20 N         -56.3641  -30.7929   13.1442 N.am      13 UNK        -0.7310 
     21 O         -58.3923  -30.9032   12.2586 O.2       13 UNK        -0.5035 
     22 N         -55.7408  -28.4787   11.5582 N.am      13 UNK        -0.4233 
     23 C         -55.6985  -27.6215   12.5873 C.2       13 UNK         0.4989 
     24 O         -56.6689  -27.3497   13.2977 O.2       13 UNK        -0.4996 
     25 CA        -54.3374  -26.9721   12.8943 C.3       12 UNK         0.0216 
     26 CB        -54.4879  -25.4626   13.1572 C.3       12 UNK        -0.1964 
     27 N         -53.6698  -27.5898   14.0433 N.am      12 UNK        -0.4276 
     28 C         -53.3666  -28.8881   14.1862 C.2       12 UNK         0.5020 
     29 O         -53.6168  -29.7509   13.3435 O.2       12 UNK        -0.5489 
     30 CA        -52.6496  -29.3085   15.4798 C.3       11 UNK         0.0294 
     31 CB        -51.1666  -29.6044   15.2085 C.3       11 UNK        -0.2019 
     32 N         -52.7488  -28.3263   16.5630 N.am      11 UNK        -0.4493 
     33 C         -53.8211  -28.1572   17.3432 C.2       11 UNK         0.4932 
     34 O         -54.8834  -28.7569   17.1787 O.2       11 UNK        -0.5029 
     35 CA        -53.6871  -27.1874   18.5313 C.3       10 UNK         0.0280 
     36 CB        -52.8447  -27.8209   19.6564 C.3       10 UNK        -0.1976 
     37 N         -53.2097  -25.8316   18.2191 N.am      10 UNK        -0.4242 
     38 C         -52.0258  -25.4363   17.7298 C.2       10 UNK         0.5072 
     39 O         -51.1432  -26.1959   17.3233 O.2       10 UNK        -0.5224 
     40 CA        -51.7654  -23.9271   17.7717 C.3       9 UNK         0.0343 
     41 CB        -51.2353  -23.5326   19.1672 C.3       9 UNK        -0.2003 
     42 N         -50.8071  -23.5585   16.7306 N.am      9 UNK        -0.4272 
     43 C         -50.5150  -22.3025   16.3652 C.2       9 UNK         0.4988 
     44 O         -51.0238  -21.3032   16.8758 O.2       9 UNK        -0.5108 
     45 CA        -49.4874  -22.1131   15.2354 C.3       8 UNK         0.0248 
     46 CB        -48.0548  -22.1937   15.7878 C.3       8 UNK        -0.2001 
     47 N         -49.6318  -23.0564   14.1256 N.am      8 UNK        -0.4140 
     48 C         -50.7209  -23.2019   13.3559 C.2       8 UNK         0.5028 
     49 O         -51.7572  -22.5537   13.5056 O.2       8 UNK        -0.5428 
     50 CA        -50.6460  -24.2238   12.2059 C.3       7 UNK         0.0264 
     51 CB        -50.7275  -23.5097   10.8461 C.3       7 UNK        -0.1988 
     52 N         -49.4515  -25.0749   12.2372 N.am      7 UNK        -0.4454 
     53 C         -49.2646  -26.0792   13.1098 C.2       7 UNK         0.5027 
     54 O         -50.0521  -26.3237   14.0233 O.2       7 UNK        -0.5083 
     55 CA        -48.0136  -26.9733   12.9417 C.3       6 UNK         0.0844 
     56 C56       -48.3690  -28.4008   12.4523 C.3       14 UNK        -0.0967 
     57 S57       -49.2239  -28.4541   10.8384 S.3       14 UNK        -0.2604 
     58 C58       -50.9306  -28.7378   11.4079 C.3       14 UNK         0.0134 
     59 N         -46.9766  -26.3619   12.1087 N.am      6 UNK        -0.4116 
     60 C         -46.1625  -25.3803   12.5164 C.2       5 UNK         0.5034 
     61 O         -46.1997  -24.8823   13.6423 O.2       5 UNK        -0.5045 
     62 CA        -45.1480  -24.8483   11.4904 C.3       5 UNK         0.0224 
     63 CB        -43.8411  -25.6540   11.5608 C.3       5 UNK        -0.1978 
     64 N         -45.6239  -24.8234   10.1016 N.am      5 UNK        -0.4737 
     65 C         -46.7057  -24.1756    9.6548 C.2       4 UNK         0.5027 
     66 O         -47.5251  -23.6416   10.3999 O.2       4 UNK        -0.5211 
     67 CA        -46.9116  -24.0804    8.1323 C.3       4 UNK         0.0297 
     68 CB        -46.0757  -22.9281    7.5445 C.3       4 UNK        -0.1993 
     69 N         -46.7093  -25.3165    7.3635 N.am      4 UNK        -0.4486 
     70 C         -45.5989  -26.0532    7.1939 C.2       3 UNK         0.4961 
     71 O         -44.5300  -25.8327    7.7642 O.2       3 UNK        -0.5105 
     72 CA        -45.6865  -27.2439    6.2176 C.3       3 UNK         0.0299 
     73 CB        -45.9891  -28.5351    6.9926 C.3       3 UNK        -0.1972 
     74 N         -46.6873  -27.0603    5.1603 N.am      3 UNK        -0.4305 
     75 C         -46.6174  -26.1190    4.2041 C.2       2 UNK         0.5006 
     76 O         -45.6324  -25.4004    4.0295 O.2       2 UNK        -0.5106 
     77 CA        -47.8522  -25.9105    3.3020 C.3       2 UNK         0.0296 
     78 CB        -47.6223  -26.5507    1.9231 C.3       2 UNK        -0.2002 
     79 N         -49.1178  -26.4072    3.8552 N.am      2 UNK        -0.4032 
     80 C         -49.6629  -26.0419    5.0259 C.2       1 UNK         0.5000 
     81 O         -49.1513  -25.2142    5.7819 O.2       1 UNK        -0.5238 
     82 H82       -50.5075  -29.5962    8.2897 H         1 UNK         0.0889 
     83 H83       -48.7870  -29.8232    7.9972 H         1 UNK         0.0889 
     84 H84       -49.9689  -30.8240    7.1512 H         1 UNK         0.0889 
     85 H85       -51.2510  -27.7045    7.3184 H         1 UNK         0.3028 
     86 H86       -51.2829  -27.3545    4.5706 H         1 UNK         0.0864 
     87 H87       -53.0441  -26.4242    5.8667 H         1 UNK         0.0720 
     88 H88       -52.2878  -25.1283    5.0014 H         1 UNK         0.0720 
     89 H89       -54.2424  -25.3959    7.8048 H         1 UNK         0.0814 
     90 H90       -53.4240  -24.8251    9.2359 H         1 UNK         0.0814 
     91 H91       -51.5365  -26.3673   10.2342 H         1 UNK         0.1469 
     92 H92       -52.5955  -30.5189   10.1749 H         1 UNK         0.1381 
     93 H93       -54.6170  -27.7550    7.5936 H         1 UNK         0.1206 
     94 H94       -53.8399  -31.1710    7.8725 H         1 UNK         0.0813 
     95 H95       -55.1107  -30.0737    7.3969 H         1 UNK         0.0813 
     96 H96       -57.8278  -30.2453    9.4837 H         1 UNK         0.0638 
     97 H97       -56.6784  -29.0129    9.0718 H         1 UNK         0.0638 
     98 H98       -57.7699  -28.6064   11.2422 H         1 UNK         0.0568 
     99 H99       -56.6035  -31.5077   13.8115 H         1 UNK         0.3450 
    100 H100      -55.4268  -30.4001   13.1331 H         1 UNK         0.3450 
    101 H101      -54.8922  -28.6971   11.0537 H         1 UNK         0.2987 
    102 H102      -53.6887  -27.0994   12.0304 H         1 UNK         0.0766 
    103 H103      -53.5296  -24.9908   13.3682 H         1 UNK         0.0798 
    104 H104      -55.1438  -25.2621   14.0055 H         1 UNK         0.0798 
    105 H105      -54.9143  -24.9579   12.2893 H         1 UNK         0.0798 
    106 H106      -53.4257  -26.9775   14.8069 H         1 UNK         0.3198 
    107 H107      -53.1199  -30.2364   15.8129 H         1 UNK         0.0843 
    108 H108      -50.6225  -28.7000   14.9400 H         1 UNK         0.0831 
    109 H109      -51.0494  -30.3163   14.3902 H         1 UNK         0.0831 
    110 H110      -50.6830  -30.0366   16.0846 H         1 UNK         0.0831 
    111 H111      -51.9339  -27.7438   16.7539 H         1 UNK         0.3133 
    112 H112      -54.6947  -27.0501   18.9275 H         1 UNK         0.0566 
    113 H113      -52.8471  -27.1985   20.5512 H         1 UNK         0.0814 
    114 H114      -53.2426  -28.7962   19.9404 H         1 UNK         0.0814 
    115 H115      -51.8069  -27.9699   19.3563 H         1 UNK         0.0814 
    116 H116      -53.8548  -25.1001   18.4859 H         1 UNK         0.3091 
    117 H117      -52.7046  -23.4057   17.5752 H         1 UNK         0.0702 
    118 H118      -51.1252  -22.4535   19.2712 H         1 UNK         0.0785 
    119 H119      -50.2647  -23.9879   19.3687 H         1 UNK         0.0785 
    120 H120      -51.9164  -23.8571   19.9551 H         1 UNK         0.0785 
    121 H121      -50.3712  -24.3419   16.2580 H         1 UNK         0.2998 
    122 H122      -49.6360  -21.1118   14.8257 H         1 UNK         0.0697 
    123 H123      -47.8245  -23.1883   16.1723 H         1 UNK         0.0825 
    124 H124      -47.9109  -21.4860   16.6056 H         1 UNK         0.0825 
    125 H125      -47.3185  -21.9538   15.0203 H         1 UNK         0.0825 
    126 H126      -48.8288  -23.6302   13.9110 H         1 UNK         0.3029 
    127 H127      -51.5149  -24.8774   12.2928 H         1 UNK         0.0897 
    128 H128      -50.5874  -24.2007   10.0155 H         1 UNK         0.0792 
    129 H129      -49.9732  -22.7273   10.7566 H         1 UNK         0.0792 
    130 H130      -51.7007  -23.0354   10.7140 H         1 UNK         0.0792 
    131 H131      -48.7368  -24.8714   11.5455 H         1 UNK         0.3086 
    132 H132      -47.5940  -27.0869   13.9439 H         1 UNK         0.0583 
    133 H133      -47.4580  -28.9957   12.3697 H         1 UNK         0.1020 
    134 H134      -48.9708  -28.9152   13.2026 H         1 UNK         0.1020 
    135 H135      -51.0173  -29.7595   11.7809 H         1 UNK         0.0694 
    136 H136      -51.1567  -28.0847   12.2502 H         1 UNK         0.0694 
    137 H137      -46.8966  -26.7006   11.1608 H         1 UNK         0.2989 
    138 H138      -44.9279  -23.8160   11.7711 H         1 UNK         0.1055 
    139 H139      -43.4470  -25.6745   12.5780 H         1 UNK         0.0806 
    140 H140      -43.0707  -25.2161   10.9257 H         1 UNK         0.0806 
    141 H141      -43.9870  -26.6879   11.2451 H         1 UNK         0.0806 
    142 H142      -45.0189  -25.2360    9.3925 H         1 UNK         0.3061 
    143 H143      -47.9625  -23.8248    7.9843 H         1 UNK         0.0734 
    144 H144      -46.2978  -22.7792    6.4877 H         1 UNK         0.0832 
    145 H145      -46.2911  -21.9894    8.0567 H         1 UNK         0.0832 
    146 H146      -45.0050  -23.1116    7.6392 H         1 UNK         0.0832 
    147 H147      -47.5281  -25.5823    6.8218 H         1 UNK         0.3156 
    148 H148      -44.7120  -27.3534    5.7374 H         1 UNK         0.0589 
    149 H149      -46.9204  -28.4550    7.5529 H         1 UNK         0.0808 
    150 H150      -46.0674  -29.3947    6.3264 H         1 UNK         0.0808 
    151 H151      -45.1973  -28.7515    7.7111 H         1 UNK         0.0808 
    152 H152      -47.5193  -27.6413    5.2088 H         1 UNK         0.3098 
    153 H153      -47.9642  -24.8332    3.1641 H         1 UNK         0.0720 
    154 H154      -48.4372  -26.3211    1.2362 H         1 UNK         0.0791 
    155 H155      -47.5348  -27.6359    1.9926 H         1 UNK         0.0791 
    156 H156      -46.7037  -26.1785    1.4669 H         1 UNK         0.0791 
    157 H157      -49.5713  -27.1407    3.3291 H         1 UNK         0.3028 
@<TRIPOS>BOND
     1    1    2 1    
     2    1   82 1    
     3    1   83 1    
     4    1   84 1    
     5    2    3 2    
     6    2    4 am   BACKBONE|DICT|INTERRES
     7    4    5 1    
     8    4   85 1    
     9    5    6 1    
    10    5   80 1    
    11    5   86 1    
    12    6    7 1    
    13    6   87 1    
    14    6   88 1    
    15    7    8 1    
    16    8    9 1    
    17    8   89 1    
    18    8   90 1    
    19    9   10 ar   
    20    9   14 ar   
    21   10   11 ar   
    22   10   91 1    
    23   11   12 ar   
    24   11   58 1    
    25   12   13 ar   
    26   12   92 1    
    27   13   14 ar   
    28   13   15 1    
    29   14   93 1    
    30   15   16 1    
    31   15   94 1    
    32   15   95 1    
    33   16   17 1    
    34   17   18 1    
    35   17   96 1    
    36   17   97 1    
    37   18   19 1    
    38   18   22 1    
    39   18   98 1    
    40   19   20 am   BACKBONE|DICT|INTERRES
    41   19   21 2    
    42   20   99 1    
    43   20  100 1    
    44   22   23 am   BACKBONE|DICT|INTERRES
    45   22  101 1    
    46   23   24 2    
    47   23   25 1    
    48   25   26 1    
    49   25   27 1    
    50   25  102 1    
    51   26  103 1    
    52   26  104 1    
    53   26  105 1    
    54   27   28 am   BACKBONE|DICT|INTERRES
    55   27  106 1    
    56   28   29 2    
    57   28   30 1    
    58   30   31 1    
    59   30   32 1    
    60   30  107 1    
    61   31  108 1    
    62   31  109 1    
    63   31  110 1    
    64   32   33 am   BACKBONE|DICT|INTERRES
    65   32  111 1    
    66   33   34 2    
    67   33   35 1    
    68   35   36 1    
    69   35   37 1    
    70   35  112 1    
    71   36  113 1    
    72   36  114 1    
    73   36  115 1    
    74   37   38 am   BACKBONE|DICT|INTERRES
    75   37  116 1    
    76   38   39 2    
    77   38   40 1    
    78   40   41 1    
    79   40   42 1    
    80   40  117 1    
    81   41  118 1    
    82   41  119 1    
    83   41  120 1    
    84   42   43 am   BACKBONE|DICT|INTERRES
    85   42  121 1    
    86   43   44 2    
    87   43   45 1    
    88   45   46 1    
    89   45   47 1    
    90   45  122 1    
    91   46  123 1    
    92   46  124 1    
    93   46  125 1    
    94   47   48 am   BACKBONE|DICT|INTERRES
    95   47  126 1    
    96   48   49 2    
    97   48   50 1    
    98   50   51 1    
    99   50   52 1    
   100   50  127 1    
   101   51  128 1    
   102   51  129 1    
   103   51  130 1    
   104   52   53 am   BACKBONE|DICT|INTERRES
   105   52  131 1    
   106   53   54 2    
   107   53   55 1    
   108   55   56 1    
   109   55   59 1    
   110   55  132 1    
   111   56   57 1    
   112   56  133 1    
   113   56  134 1    
   114   57   58 1    
   115   58  135 1    
   116   58  136 1    
   117   59   60 am   BACKBONE|DICT|INTERRES
   118   59  137 1    
   119   60   61 2    
   120   60   62 1    
   121   62   63 1    
   122   62   64 1    
   123   62  138 1    
   124   63  139 1    
   125   63  140 1    
   126   63  141 1    
   127   64   65 am   BACKBONE|DICT|INTERRES
   128   64  142 1    
   129   65   66 2    
   130   65   67 1    
   131   67   68 1    
   132   67   69 1    
   133   67  143 1    
   134   68  144 1    
   135   68  145 1    
   136   68  146 1    
   137   69   70 am   BACKBONE|DICT|INTERRES
   138   69  147 1    
   139   70   71 2    
   140   70   72 1    
   141   72   73 1    
   142   72   74 1    
   143   72  148 1    
   144   73  149 1    
   145   73  150 1    
   146   73  151 1    
   147   74   75 am   BACKBONE|DICT|INTERRES
   148   74  152 1    
   149   75   76 2    
   150   75   77 1    
   151   77   78 1    
   152   77   79 1    
   153   77  153 1    
   154   78  154 1    
   155   78  155 1    
   156   78  156 1    
   157   79   80 am   BACKBONE|DICT|INTERRES
   158   79  157 1    
   159   80   81 2    
@<TRIPOS>SUBSTRUCTURE
     1 UNK         1 GROUP             0       ****    0 ROOT    
