@<TRIPOS>MOLECULE
3R207
157   159    1
SMALL
USER_CHARGES


@<TRIPOS>ATOM
      1 CA        -45.7638  -30.7825    3.9082 C.3       0 UNK        -0.1975 
      2 C         -46.9808  -29.8794    3.7731 C.2       0 UNK         0.4852 
      3 O         -47.3202  -29.4719    2.6617 O.2       0 UNK        -0.5216 
      4 N         -47.6359  -29.5574    4.8973 N.am      1 UNK        -0.4461 
      5 CA        -48.8488  -28.7266    4.9561 C.3       1 UNK         0.0864 
      6 C6        -49.6600  -28.9741    6.2514 C.3       14 UNK        -0.0898 
      7 S7        -50.1170  -30.7279    6.4828 S.3       14 UNK        -0.2598 
      8 C8        -50.5416  -30.7754    8.2550 C.3       14 UNK         0.0286 
      9 C9        -51.8924  -30.1302    8.5298 C.ar      14 UNK        -0.0844 
     10 C10       -51.9912  -28.7448    8.6838 C.ar      14 UNK        -0.0881 
     11 C11       -53.2342  -28.1317    8.8910 C.ar      14 UNK        -0.0643 
     12 C12       -54.3742  -28.9340    8.9842 C.ar      14 UNK        -0.0930 
     13 C13       -54.2839  -30.3247    8.8863 C.ar      14 UNK        -0.0827 
     14 C14       -53.0424  -30.9171    8.6395 C.ar      14 UNK        -0.1249 
     15 C15       -55.5260  -31.1865    9.0530 C.3       14 UNK         0.0141 
     16 S16       -55.6742  -31.8435   10.7473 S.3       14 UNK        -0.2313 
     17 C17       -56.1324  -30.3609   11.7108 C.3       14 UNK        -0.0915 
     18 CA        -55.1776  -30.0937   12.9045 C.3       13 UNK         0.0968 
     19 C         -53.8378  -29.4365   12.4699 C.2       13 UNK         0.5732 
     20 N         -52.7959  -30.2258   12.2512 N.am      13 UNK        -0.7310 
     21 O         -53.7436  -28.2186   12.3243 O.2       13 UNK        -0.5035 
     22 N         -55.8422  -29.2626   13.9128 N.am      13 UNK        -0.4233 
     23 C         -55.4866  -29.2018   15.1996 C.2       13 UNK         0.4989 
     24 O         -54.7042  -29.9880   15.7363 O.2       13 UNK        -0.4996 
     25 CA        -56.0751  -28.0235   15.9939 C.3       12 UNK         0.0216 
     26 CB        -55.8820  -28.1686   17.5147 C.3       12 UNK        -0.1964 
     27 N         -55.4645  -26.7715   15.5355 N.am      12 UNK        -0.4276 
     28 C         -55.8580  -26.0927   14.4461 C.2       12 UNK         0.5020 
     29 O         -56.8222  -26.4449   13.7625 O.2       12 UNK        -0.5489 
     30 CA        -55.0480  -24.8588   13.9930 C.3       11 UNK         0.0294 
     31 CB        -55.9584  -23.6507   13.6907 C.3       11 UNK        -0.2019 
     32 N         -53.9377  -24.4759   14.8721 N.am      11 UNK        -0.4493 
     33 C         -53.9835  -24.0144   16.1303 C.2       11 UNK         0.4932 
     34 O         -55.0263  -23.7855   16.7445 O.2       11 UNK        -0.5029 
     35 CA        -52.6156  -23.8311   16.8232 C.3       10 UNK         0.0280 
     36 CB        -52.7329  -23.6597   18.3521 C.3       10 UNK        -0.1976 
     37 N         -51.6689  -24.9073   16.4948 N.am      10 UNK        -0.4242 
     38 C         -51.8612  -26.2267   16.6598 C.2       10 UNK         0.5072 
     39 O         -52.8658  -26.6992   17.1909 O.2       10 UNK        -0.5224 
     40 CA        -50.8061  -27.1989   16.0985 C.3       9 UNK         0.0343 
     41 CB        -51.4230  -28.0563   14.9812 C.3       9 UNK        -0.2003 
     42 N         -49.6086  -26.5382   15.5762 N.am      9 UNK        -0.4272 
     43 C         -48.6124  -26.0550   16.3304 C.2       9 UNK         0.4988 
     44 O         -48.5651  -26.1647   17.5560 O.2       9 UNK        -0.5108 
     45 CA        -47.4963  -25.2895   15.5978 C.3       8 UNK         0.0248 
     46 CB        -46.4475  -26.2663   15.0430 C.3       8 UNK        -0.2001 
     47 N         -47.9912  -24.4270   14.5184 N.am      8 UNK        -0.4140 
     48 C         -48.8405  -23.4018   14.6880 C.2       8 UNK         0.5028 
     49 O         -49.2942  -23.0608   15.7804 O.2       8 UNK        -0.5428 
     50 CA        -49.3113  -22.6653   13.4236 C.3       7 UNK         0.0264 
     51 CB        -48.2177  -21.7304   12.8825 C.3       7 UNK        -0.1988 
     52 N         -49.7456  -23.5824   12.3700 N.am      7 UNK        -0.4454 
     53 C         -50.7778  -24.4340   12.4726 C.2       7 UNK         0.5027 
     54 O         -51.5157  -24.5119   13.4546 O.2       7 UNK        -0.5083 
     55 CA        -50.9980  -25.3816   11.2816 C.3       6 UNK         0.0844 
     56 C56       -51.7493  -24.6351   10.1482 C.3       14 UNK        -0.0967 
     57 S57       -51.9392  -25.6183    8.6272 S.3       14 UNK        -0.2604 
     58 C58       -53.4063  -26.6210    9.0485 C.3       14 UNK         0.0134 
     59 N         -49.7291  -25.9802   10.8547 N.am      6 UNK        -0.4116 
     60 C         -48.9802  -26.8045   11.6031 C.2       5 UNK         0.5034 
     61 O         -49.2932  -27.1899   12.7281 O.2       5 UNK        -0.5045 
     62 CA        -47.6263  -27.2368   11.0178 C.3       5 UNK         0.0224 
     63 CB        -47.8007  -28.4512   10.0959 C.3       5 UNK        -0.1978 
     64 N         -46.9578  -26.1567   10.2892 N.am      5 UNK        -0.4737 
     65 C         -46.4954  -25.0363   10.8614 C.2       4 UNK         0.5027 
     66 O         -46.5336  -24.8193   12.0717 O.2       4 UNK        -0.5211 
     67 CA        -45.9552  -23.9540    9.9138 C.3       4 UNK         0.0297 
     68 CB        -44.4827  -24.2229    9.5678 C.3       4 UNK        -0.1993 
     69 N         -46.7350  -23.8281    8.6782 N.am      4 UNK        -0.4486 
     70 C         -48.0352  -23.5206    8.6063 C.2       3 UNK         0.4961 
     71 O         -48.7308  -23.3187    9.6020 O.2       3 UNK        -0.5105 
     72 CA        -48.6894  -23.4326    7.2120 C.3       3 UNK         0.0299 
     73 CB        -48.6529  -21.9813    6.6982 C.3       3 UNK        -0.1972 
     74 N         -48.1924  -24.3645    6.1824 N.am      3 UNK        -0.4305 
     75 C         -46.9717  -24.4618    5.6357 C.2       2 UNK         0.5006 
     76 O         -46.0000  -23.8076    6.0187 O.2       2 UNK        -0.5106 
     77 CA        -46.8071  -25.4607    4.4715 C.3       2 UNK         0.0296 
     78 CB        -45.3494  -25.5615    3.9815 C.3       2 UNK        -0.2002 
     79 N         -47.2869  -26.8105    4.7832 N.am      2 UNK        -0.4032 
     80 C         -48.5649  -27.2167    4.7656 C.2       1 UNK         0.5000 
     81 O         -49.5090  -26.4398    4.6083 O.2       1 UNK        -0.5238 
     82 H82       -44.8764  -30.2761    3.5291 H         1 UNK         0.0889 
     83 H83       -45.9087  -31.6947    3.3301 H         1 UNK         0.0889 
     84 H84       -45.5774  -31.0643    4.9443 H         1 UNK         0.0889 
     85 H85       -47.3292  -29.9437    5.7792 H         1 UNK         0.3028 
     86 H86       -49.4857  -29.0170    4.1173 H         1 UNK         0.0864 
     87 H87       -49.0924  -28.6373    7.1180 H         1 UNK         0.0720 
     88 H88       -50.5824  -28.3902    6.2348 H         1 UNK         0.0720 
     89 H89       -50.5546  -31.8164    8.5814 H         1 UNK         0.0814 
     90 H90       -49.7610  -30.2891    8.8396 H         1 UNK         0.0814 
     91 H91       -51.0909  -28.1525    8.6274 H         1 UNK         0.1469 
     92 H92       -55.3352  -28.4704    9.1590 H         1 UNK         0.1381 
     93 H93       -52.9712  -31.9921    8.5450 H         1 UNK         0.1206 
     94 H94       -55.4835  -32.0236    8.3547 H         1 UNK         0.0813 
     95 H95       -56.4261  -30.6250    8.7975 H         1 UNK         0.0813 
     96 H96       -57.1416  -30.5455   12.0824 H         1 UNK         0.0638 
     97 H97       -56.2161  -29.4841   11.0686 H         1 UNK         0.0638 
     98 H98       -54.9504  -31.0535   13.3734 H         1 UNK         0.0568 
     99 H99       -52.8738  -31.2262   12.3366 H         1 UNK         0.3450 
    100 H100      -51.9313  -29.8095   11.9487 H         1 UNK         0.3450 
    101 H101      -56.4129  -28.5037   13.5570 H         1 UNK         0.2987 
    102 H102      -57.1504  -27.9940   15.8044 H         1 UNK         0.0766 
    103 H103      -54.8313  -28.2640   17.7884 H         1 UNK         0.0798 
    104 H104      -56.3929  -29.0578   17.8858 H         1 UNK         0.0798 
    105 H105      -56.2903  -27.3115   18.0503 H         1 UNK         0.0798 
    106 H106      -54.6343  -26.4693   16.0351 H         1 UNK         0.3198 
    107 H107      -54.5776  -25.1550   13.0536 H         1 UNK         0.0843 
    108 H108      -56.5142  -23.3303   14.5722 H         1 UNK         0.0831 
    109 H109      -56.6905  -23.8956   12.9201 H         1 UNK         0.0831 
    110 H110      -55.3819  -22.7998   13.3280 H         1 UNK         0.0831 
    111 H111      -53.0116  -24.5954   14.4589 H         1 UNK         0.3133 
    112 H112      -52.1867  -22.9142   16.4167 H         1 UNK         0.0566 
    113 H113      -51.7545  -23.5137   18.8097 H         1 UNK         0.0814 
    114 H114      -53.3404  -22.7892   18.6027 H         1 UNK         0.0814 
    115 H115      -53.1975  -24.5271   18.8222 H         1 UNK         0.0814 
    116 H116      -50.8179  -24.6035   16.0353 H         1 UNK         0.3091 
    117 H117      -50.5116  -27.8633   16.9133 H         1 UNK         0.0702 
    118 H118      -52.2925  -28.6083   15.3398 H         1 UNK         0.0785 
    119 H119      -51.7509  -27.4429   14.1406 H         1 UNK         0.0785 
    120 H120      -50.7114  -28.7894   14.6014 H         1 UNK         0.0785 
    121 H121      -49.5392  -26.4683   14.5648 H         1 UNK         0.2998 
    122 H122      -47.0056  -24.6445   16.3296 H         1 UNK         0.0697 
    123 H123      -46.8717  -26.9230   14.2830 H         1 UNK         0.0825 
    124 H124      -46.0446  -26.8993   15.8347 H         1 UNK         0.0825 
    125 H125      -45.6081  -25.7345   14.5944 H         1 UNK         0.0825 
    126 H126      -47.6270  -24.6118   13.5854 H         1 UNK         0.3029 
    127 H127      -50.1728  -22.0537   13.7007 H         1 UNK         0.0897 
    128 H128      -48.5731  -21.1614   12.0231 H         1 UNK         0.0792 
    129 H129      -47.3286  -22.2797   12.5728 H         1 UNK         0.0792 
    130 H130      -47.9088  -21.0119   13.6428 H         1 UNK         0.0792 
    131 H131      -49.2224  -23.5638   11.4982 H         1 UNK         0.3086 
    132 H132      -51.6365  -26.1984   11.6264 H         1 UNK         0.0583 
    133 H133      -52.7361  -24.3176   10.4914 H         1 UNK         0.1020 
    134 H134      -51.2327  -23.7147    9.8731 H         1 UNK         0.1020 
    135 H135      -53.7099  -26.4269   10.0781 H         1 UNK         0.0694 
    136 H136      -54.2310  -26.2866    8.4174 H         1 UNK         0.0694 
    137 H137      -49.3751  -25.6746    9.9610 H         1 UNK         0.2989 
    138 H138      -46.9841  -27.5287   11.8518 H         1 UNK         0.1055 
    139 H139      -48.2621  -29.2820   10.6319 H         1 UNK         0.0806 
    140 H140      -46.8426  -28.8049    9.7145 H         1 UNK         0.0806 
    141 H141      -48.4380  -28.2151    9.2456 H         1 UNK         0.0806 
    142 H142      -46.8796  -26.2483    9.2870 H         1 UNK         0.3061 
    143 H143      -46.0155  -22.9984   10.4386 H         1 UNK         0.0734 
    144 H144      -43.8780  -24.3038   10.4723 H         1 UNK         0.0832 
    145 H145      -44.0623  -23.4142    8.9696 H         1 UNK         0.0832 
    146 H146      -44.3607  -25.1514    9.0086 H         1 UNK         0.0832 
    147 H147      -46.2371  -23.9137    7.7933 H         1 UNK         0.3156 
    148 H148      -49.7379  -23.6987    7.3550 H         1 UNK         0.0589 
    149 H149      -47.6332  -21.6381    6.5198 H         1 UNK         0.0808 
    150 H150      -49.2101  -21.8761    5.7673 H         1 UNK         0.0808 
    151 H151      -49.1020  -21.2999    7.4223 H         1 UNK         0.0808 
    152 H152      -48.8971  -24.9821    5.7868 H         1 UNK         0.3098 
    153 H153      -47.4015  -25.0698    3.6427 H         1 UNK         0.0720 
    154 H154      -45.2652  -26.2244    3.1199 H         1 UNK         0.0791 
    155 H155      -44.6859  -25.9375    4.7614 H         1 UNK         0.0791 
    156 H156      -44.9705  -24.5862    3.6725 H         1 UNK         0.0791 
    157 H157      -46.5788  -27.5090    4.9550 H         1 UNK         0.3028 
@<TRIPOS>BOND
     1    1    2 1    
     2    1   82 1    
     3    1   83 1    
     4    1   84 1    
     5    2    3 2    
     6    2    4 am   BACKBONE|DICT|INTERRES
     7    4    5 1    
     8    4   85 1    
     9    5    6 1    
    10    5   80 1    
    11    5   86 1    
    12    6    7 1    
    13    6   87 1    
    14    6   88 1    
    15    7    8 1    
    16    8    9 1    
    17    8   89 1    
    18    8   90 1    
    19    9   10 ar   
    20    9   14 ar   
    21   10   11 ar   
    22   10   91 1    
    23   11   12 ar   
    24   11   58 1    
    25   12   13 ar   
    26   12   92 1    
    27   13   14 ar   
    28   13   15 1    
    29   14   93 1    
    30   15   16 1    
    31   15   94 1    
    32   15   95 1    
    33   16   17 1    
    34   17   18 1    
    35   17   96 1    
    36   17   97 1    
    37   18   19 1    
    38   18   22 1    
    39   18   98 1    
    40   19   20 am   BACKBONE|DICT|INTERRES
    41   19   21 2    
    42   20   99 1    
    43   20  100 1    
    44   22   23 am   BACKBONE|DICT|INTERRES
    45   22  101 1    
    46   23   24 2    
    47   23   25 1    
    48   25   26 1    
    49   25   27 1    
    50   25  102 1    
    51   26  103 1    
    52   26  104 1    
    53   26  105 1    
    54   27   28 am   BACKBONE|DICT|INTERRES
    55   27  106 1    
    56   28   29 2    
    57   28   30 1    
    58   30   31 1    
    59   30   32 1    
    60   30  107 1    
    61   31  108 1    
    62   31  109 1    
    63   31  110 1    
    64   32   33 am   BACKBONE|DICT|INTERRES
    65   32  111 1    
    66   33   34 2    
    67   33   35 1    
    68   35   36 1    
    69   35   37 1    
    70   35  112 1    
    71   36  113 1    
    72   36  114 1    
    73   36  115 1    
    74   37   38 am   BACKBONE|DICT|INTERRES
    75   37  116 1    
    76   38   39 2    
    77   38   40 1    
    78   40   41 1    
    79   40   42 1    
    80   40  117 1    
    81   41  118 1    
    82   41  119 1    
    83   41  120 1    
    84   42   43 am   BACKBONE|DICT|INTERRES
    85   42  121 1    
    86   43   44 2    
    87   43   45 1    
    88   45   46 1    
    89   45   47 1    
    90   45  122 1    
    91   46  123 1    
    92   46  124 1    
    93   46  125 1    
    94   47   48 am   BACKBONE|DICT|INTERRES
    95   47  126 1    
    96   48   49 2    
    97   48   50 1    
    98   50   51 1    
    99   50   52 1    
   100   50  127 1    
   101   51  128 1    
   102   51  129 1    
   103   51  130 1    
   104   52   53 am   BACKBONE|DICT|INTERRES
   105   52  131 1    
   106   53   54 2    
   107   53   55 1    
   108   55   56 1    
   109   55   59 1    
   110   55  132 1    
   111   56   57 1    
   112   56  133 1    
   113   56  134 1    
   114   57   58 1    
   115   58  135 1    
   116   58  136 1    
   117   59   60 am   BACKBONE|DICT|INTERRES
   118   59  137 1    
   119   60   61 2    
   120   60   62 1    
   121   62   63 1    
   122   62   64 1    
   123   62  138 1    
   124   63  139 1    
   125   63  140 1    
   126   63  141 1    
   127   64   65 am   BACKBONE|DICT|INTERRES
   128   64  142 1    
   129   65   66 2    
   130   65   67 1    
   131   67   68 1    
   132   67   69 1    
   133   67  143 1    
   134   68  144 1    
   135   68  145 1    
   136   68  146 1    
   137   69   70 am   BACKBONE|DICT|INTERRES
   138   69  147 1    
   139   70   71 2    
   140   70   72 1    
   141   72   73 1    
   142   72   74 1    
   143   72  148 1    
   144   73  149 1    
   145   73  150 1    
   146   73  151 1    
   147   74   75 am   BACKBONE|DICT|INTERRES
   148   74  152 1    
   149   75   76 2    
   150   75   77 1    
   151   77   78 1    
   152   77   79 1    
   153   77  153 1    
   154   78  154 1    
   155   78  155 1    
   156   78  156 1    
   157   79   80 am   BACKBONE|DICT|INTERRES
   158   79  157 1    
   159   80   81 2    
@<TRIPOS>SUBSTRUCTURE
     1 UNK         1 GROUP             0       ****    0 ROOT    
