@<TRIPOS>MOLECULE
3R207
157   159    1
SMALL
USER_CHARGES


@<TRIPOS>ATOM
      1 CA        -51.1062  -30.0419    8.6243 C.3       0 UNK        -0.1975 
      2 C         -50.3722  -30.0967    7.2945 C.2       0 UNK         0.4852 
      3 O         -49.4187  -30.8627    7.1538 O.2       0 UNK        -0.5216 
      4 N         -50.7957  -29.2769    6.3233 N.am      1 UNK        -0.4461 
      5 CA        -50.1838  -29.1597    4.9902 C.3       1 UNK         0.0864 
      6 C6        -51.0920  -28.3728    4.0146 C.3       14 UNK        -0.0898 
      7 S7        -52.7125  -29.1634    3.7581 S.3       14 UNK        -0.2598 
      8 C8        -53.8506  -27.8896    4.3900 C.3       14 UNK         0.0286 
      9 C9        -54.0055  -27.9409    5.9043 C.ar      14 UNK        -0.0844 
     10 C10       -53.5665  -26.8831    6.7109 C.ar      14 UNK        -0.0881 
     11 C11       -53.8148  -26.8895    8.0896 C.ar      14 UNK        -0.0643 
     12 C12       -54.4984  -27.9726    8.6535 C.ar      14 UNK        -0.0930 
     13 C13       -54.9150  -29.0467    7.8628 C.ar      14 UNK        -0.0827 
     14 C14       -54.6653  -29.0250    6.4898 C.ar      14 UNK        -0.1249 
     15 C15       -55.6652  -30.2094    8.4921 C.3       14 UNK         0.0141 
     16 S16       -54.5399  -31.2494    9.4699 S.3       14 UNK        -0.2313 
     17 C17       -55.6010  -31.7028   10.8842 C.3       14 UNK        -0.0915 
     18 CA        -55.7967  -30.5548   11.9222 C.3       13 UNK         0.0968 
     19 C         -56.6840  -30.9801   13.1324 C.2       13 UNK         0.5732 
     20 N         -56.4443  -30.4872   14.3434 N.am      13 UNK        -0.7310 
     21 O         -57.6323  -31.7445   12.9681 O.2       13 UNK        -0.5035 
     22 N         -54.5503  -29.8686   12.2963 N.am      13 UNK        -0.4233 
     23 C         -53.4961  -30.4110   12.9186 C.2       13 UNK         0.4989 
     24 O         -53.3869  -31.6063   13.1940 O.2       13 UNK        -0.4996 
     25 CA        -52.3786  -29.4386   13.3386 C.3       12 UNK         0.0216 
     26 CB        -51.2441  -29.4442   12.3018 C.3       12 UNK        -0.1964 
     27 N         -52.8334  -28.0581   13.5656 N.am      12 UNK        -0.4276 
     28 C         -53.7251  -27.6922   14.4965 C.2       12 UNK         0.5020 
     29 O         -54.3112  -28.4870   15.2373 O.2       12 UNK        -0.5489 
     30 CA        -54.0600  -26.1990   14.5740 C.3       11 UNK         0.0294 
     31 CB        -55.2019  -25.8606   13.6016 C.3       11 UNK        -0.2019 
     32 N         -54.4938  -25.8916   15.9367 N.am      11 UNK        -0.4493 
     33 C         -53.9586  -25.0419   16.8239 C.2       11 UNK         0.4932 
     34 O         -54.4410  -24.9262   17.9505 O.2       11 UNK        -0.5029 
     35 CA        -52.7173  -24.1994   16.4429 C.3       10 UNK         0.0280 
     36 CB        -52.4125  -23.0969   17.4793 C.3       10 UNK        -0.1976 
     37 N         -51.5123  -25.0062   16.2088 N.am      10 UNK        -0.4242 
     38 C         -50.9433  -25.9037   17.0292 C.2       10 UNK         0.5072 
     39 O         -51.3752  -26.2092   18.1413 O.2       10 UNK        -0.5224 
     40 CA        -49.6477  -26.5664   16.5275 C.3       9 UNK         0.0343 
     41 CB        -49.9568  -27.7074   15.5474 C.3       9 UNK        -0.2003 
     42 N         -48.7294  -25.6169   15.8958 N.am      9 UNK        -0.4272 
     43 C         -48.0754  -24.6443   16.5478 C.2       9 UNK         0.4988 
     44 O         -48.1251  -24.4800   17.7675 O.2       9 UNK        -0.5108 
     45 CA        -47.2240  -23.6868   15.6970 C.3       8 UNK         0.0248 
     46 CB        -45.8548  -24.3101   15.3813 C.3       8 UNK        -0.2001 
     47 N         -47.8924  -23.2868   14.4556 N.am      8 UNK        -0.4140 
     48 C         -48.9971  -22.5269   14.4068 C.2       8 UNK         0.5028 
     49 O         -49.5221  -22.0182   15.3973 O.2       8 UNK        -0.5428 
     50 CA        -49.6407  -22.3006   13.0284 C.3       7 UNK         0.0264 
     51 CB        -48.9736  -21.1158   12.3120 C.3       7 UNK        -0.1988 
     52 N         -49.6106  -23.4847   12.1648 N.am      7 UNK        -0.4454 
     53 C         -50.2402  -24.6389   12.4330 C.2       7 UNK         0.5027 
     54 O         -50.9281  -24.8222   13.4377 O.2       7 UNK        -0.5083 
     55 CA        -50.0102  -25.8159   11.4609 C.3       6 UNK         0.0844 
     56 C56       -50.8822  -25.7316   10.1843 C.3       14 UNK        -0.0967 
     57 S57       -52.6252  -26.1416   10.5237 S.3       14 UNK        -0.2604 
     58 C58       -53.4323  -25.6870    8.9498 C.3       14 UNK         0.0134 
     59 N         -48.5936  -25.9898   11.1479 N.am      6 UNK        -0.4116 
     60 C         -47.6437  -26.2792   12.0485 C.2       5 UNK         0.5034 
     61 O         -47.8618  -26.4776   13.2435 O.2       5 UNK        -0.5045 
     62 CA        -46.1990  -26.3017   11.5328 C.3       5 UNK         0.0224 
     63 CB        -45.8972  -27.6302   10.8231 C.3       5 UNK        -0.1978 
     64 N         -45.9245  -25.1782   10.6332 N.am      5 UNK        -0.4737 
     65 C         -45.8769  -23.8974   11.0267 C.2       4 UNK         0.5027 
     66 O         -46.0336  -23.5330   12.1909 O.2       4 UNK        -0.5211 
     67 CA        -45.6566  -22.8439    9.9299 C.3       4 UNK         0.0297 
     68 CB        -44.1668  -22.7408    9.5670 C.3       4 UNK        -0.1993 
     69 N         -46.4440  -23.1073    8.7229 N.am      4 UNK        -0.4486 
     70 C         -47.7833  -23.0869    8.6760 C.2       3 UNK         0.4961 
     71 O         -48.5045  -22.8487    9.6429 O.2       3 UNK        -0.5105 
     72 CA        -48.4334  -23.4377    7.3304 C.3       3 UNK         0.0299 
     73 CB        -48.4199  -22.2238    6.3877 C.3       3 UNK        -0.1972 
     74 N         -47.8315  -24.5950    6.6604 N.am      3 UNK        -0.4305 
     75 C         -47.7413  -25.8224    7.1889 C.2       2 UNK         0.5006 
     76 O         -48.0602  -26.1070    8.3454 O.2       2 UNK        -0.5106 
     77 CA        -47.2934  -26.9415    6.2519 C.3       2 UNK         0.0296 
     78 CB        -46.1135  -27.7477    6.8218 C.3       2 UNK        -0.2002 
     79 N         -48.4630  -27.7910    6.0923 N.am      2 UNK        -0.4032 
     80 C         -48.7814  -28.5089    5.0113 C.2       1 UNK         0.5000 
     81 O         -48.0383  -28.6386    4.0362 O.2       1 UNK        -0.5238 
     82 H82       -50.4095  -29.7726    9.4169 H         1 UNK         0.0889 
     83 H83       -51.5314  -31.0168    8.8597 H         1 UNK         0.0889 
     84 H84       -51.9142  -29.3108    8.6176 H         1 UNK         0.0889 
     85 H85       -51.6238  -28.7157    6.4727 H         1 UNK         0.3028 
     86 H86       -50.0536  -30.1700    4.5961 H         1 UNK         0.0864 
     87 H87       -50.6214  -28.2948    3.0322 H         1 UNK         0.0720 
     88 H88       -51.2290  -27.3474    4.3634 H         1 UNK         0.0720 
     89 H89       -54.8299  -28.0507    3.9370 H         1 UNK         0.0814 
     90 H90       -53.5294  -26.9017    4.0563 H         1 UNK         0.0814 
     91 H91       -53.0731  -26.0332    6.2591 H         1 UNK         0.1469 
     92 H92       -54.7147  -27.9785    9.7124 H         1 UNK         0.1381 
     93 H93       -55.0065  -29.8415    5.8675 H         1 UNK         0.1206 
     94 H94       -56.4688  -29.8156    9.1142 H         1 UNK         0.0813 
     95 H95       -56.1452  -30.8255    7.7303 H         1 UNK         0.0813 
     96 H96       -56.5645  -32.0368   10.4953 H         1 UNK         0.0638 
     97 H97       -55.1539  -32.5738   11.3657 H         1 UNK         0.0638 
     98 H98       -56.3900  -29.7835   11.4322 H         1 UNK         0.0568 
     99 H99       -57.0373  -30.7656   15.1086 H         1 UNK         0.3450 
    100 H100      -55.6721  -29.8527   14.5137 H         1 UNK         0.3450 
    101 H101      -54.5355  -28.8743   12.1325 H         1 UNK         0.2987 
    102 H102      -51.9773  -29.8124   14.2828 H         1 UNK         0.0766 
    103 H103      -50.3537  -28.9446   12.6825 H         1 UNK         0.0798 
    104 H104      -51.5455  -28.9517   11.3773 H         1 UNK         0.0798 
    105 H105      -50.9489  -30.4633   12.0472 H         1 UNK         0.0798 
    106 H106      -52.4380  -27.3452   12.9679 H         1 UNK         0.3198 
    107 H107      -53.1832  -25.6265   14.2829 H         1 UNK         0.0843 
    108 H108      -54.9178  -26.0700   12.5699 H         1 UNK         0.0831 
    109 H109      -55.4633  -24.8036   13.6534 H         1 UNK         0.0831 
    110 H110      -56.1025  -26.4379   13.8159 H         1 UNK         0.0831 
    111 H111      -55.2323  -26.4979   16.2663 H         1 UNK         0.3133 
    112 H112      -52.9477  -23.6955   15.5033 H         1 UNK         0.0566 
    113 H113      -51.5822  -22.4693   17.1558 H         1 UNK         0.0814 
    114 H114      -53.2748  -22.4445   17.6221 H         1 UNK         0.0814 
    115 H115      -52.1536  -23.5146   18.4529 H         1 UNK         0.0814 
    116 H116      -51.0932  -24.8814   15.2891 H         1 UNK         0.3091 
    117 H117      -49.1411  -26.9966   17.3941 H         1 UNK         0.0702 
    118 H118      -50.6778  -28.4073   15.9716 H         1 UNK         0.0785 
    119 H119      -50.3706  -27.3275   14.6142 H         1 UNK         0.0785 
    120 H120      -49.0573  -28.2728   15.3031 H         1 UNK         0.0785 
    121 H121      -48.5730  -25.7266   14.8975 H         1 UNK         0.2998 
    122 H122      -47.0534  -22.7841   16.2873 H         1 UNK         0.0697 
    123 H123      -45.9487  -25.2015   14.7607 H         1 UNK         0.0825 
    124 H124      -45.3380  -24.6019   16.2965 H         1 UNK         0.0825 
    125 H125      -45.2104  -23.6045   14.8567 H         1 UNK         0.0825 
    126 H126      -47.4675  -23.5955   13.5860 H         1 UNK         0.3029 
    127 H127      -50.6896  -22.0474   13.1980 H         1 UNK         0.0897 
    128 H128      -47.9303  -21.3258   12.0732 H         1 UNK         0.0792 
    129 H129      -48.9940  -20.2197   12.9337 H         1 UNK         0.0792 
    130 H130      -49.4876  -20.8757   11.3811 H         1 UNK         0.0792 
    131 H131      -49.0899  -23.3931   11.2935 H         1 UNK         0.3086 
    132 H132      -50.3003  -26.7197   11.9968 H         1 UNK         0.0583 
    133 H133      -50.8064  -24.7453    9.7219 H         1 UNK         0.1020 
    134 H134      -50.5271  -26.4445    9.4383 H         1 UNK         0.1020 
    135 H135      -54.3440  -25.1355    9.1830 H         1 UNK         0.0694 
    136 H136      -52.7964  -24.9973    8.3930 H         1 UNK         0.0694 
    137 H137      -48.3233  -25.8767   10.1734 H         1 UNK         0.2989 
    138 H138      -45.5352  -26.2148   12.3960 H         1 UNK         0.1055 
    139 H139      -46.0167  -28.4705   11.5084 H         1 UNK         0.0806 
    140 H140      -44.8740  -27.6608   10.4483 H         1 UNK         0.0806 
    141 H141      -46.5709  -27.8007    9.9839 H         1 UNK         0.0806 
    142 H142      -45.8374  -25.3862    9.6492 H         1 UNK         0.3061 
    143 H143      -45.9759  -21.8797   10.3317 H         1 UNK         0.0734 
    144 H144      -43.9861  -21.9345    8.8560 H         1 UNK         0.0832 
    145 H145      -43.5652  -22.5296   10.4524 H         1 UNK         0.0832 
    146 H146      -43.7887  -23.6660    9.1304 H         1 UNK         0.0832 
    147 H147      -45.9369  -23.3238    7.8771 H         1 UNK         0.3156 
    148 H148      -49.4759  -23.6922    7.5334 H         1 UNK         0.0589 
    149 H149      -47.4059  -21.9431    6.1000 H         1 UNK         0.0808 
    150 H150      -48.9851  -22.4217    5.4768 H         1 UNK         0.0808 
    151 H151      -48.8752  -21.3546    6.8650 H         1 UNK         0.0808 
    152 H152      -47.5555  -24.4622    5.6977 H         1 UNK         0.3098 
    153 H153      -47.0054  -26.5154    5.2884 H         1 UNK         0.0720 
    154 H154      -45.7609  -28.4863    6.1017 H         1 UNK         0.0791 
    155 H155      -46.3908  -28.2821    7.7300 H         1 UNK         0.0791 
    156 H156      -45.2709  -27.0982    7.0618 H         1 UNK         0.0791 
    157 H157      -49.1322  -27.7347    6.8483 H         1 UNK         0.3028 
@<TRIPOS>BOND
     1    1    2 1    
     2    1   82 1    
     3    1   83 1    
     4    1   84 1    
     5    2    3 2    
     6    2    4 am   BACKBONE|DICT|INTERRES
     7    4    5 1    
     8    4   85 1    
     9    5    6 1    
    10    5   80 1    
    11    5   86 1    
    12    6    7 1    
    13    6   87 1    
    14    6   88 1    
    15    7    8 1    
    16    8    9 1    
    17    8   89 1    
    18    8   90 1    
    19    9   10 ar   
    20    9   14 ar   
    21   10   11 ar   
    22   10   91 1    
    23   11   12 ar   
    24   11   58 1    
    25   12   13 ar   
    26   12   92 1    
    27   13   14 ar   
    28   13   15 1    
    29   14   93 1    
    30   15   16 1    
    31   15   94 1    
    32   15   95 1    
    33   16   17 1    
    34   17   18 1    
    35   17   96 1    
    36   17   97 1    
    37   18   19 1    
    38   18   22 1    
    39   18   98 1    
    40   19   20 am   BACKBONE|DICT|INTERRES
    41   19   21 2    
    42   20   99 1    
    43   20  100 1    
    44   22   23 am   BACKBONE|DICT|INTERRES
    45   22  101 1    
    46   23   24 2    
    47   23   25 1    
    48   25   26 1    
    49   25   27 1    
    50   25  102 1    
    51   26  103 1    
    52   26  104 1    
    53   26  105 1    
    54   27   28 am   BACKBONE|DICT|INTERRES
    55   27  106 1    
    56   28   29 2    
    57   28   30 1    
    58   30   31 1    
    59   30   32 1    
    60   30  107 1    
    61   31  108 1    
    62   31  109 1    
    63   31  110 1    
    64   32   33 am   BACKBONE|DICT|INTERRES
    65   32  111 1    
    66   33   34 2    
    67   33   35 1    
    68   35   36 1    
    69   35   37 1    
    70   35  112 1    
    71   36  113 1    
    72   36  114 1    
    73   36  115 1    
    74   37   38 am   BACKBONE|DICT|INTERRES
    75   37  116 1    
    76   38   39 2    
    77   38   40 1    
    78   40   41 1    
    79   40   42 1    
    80   40  117 1    
    81   41  118 1    
    82   41  119 1    
    83   41  120 1    
    84   42   43 am   BACKBONE|DICT|INTERRES
    85   42  121 1    
    86   43   44 2    
    87   43   45 1    
    88   45   46 1    
    89   45   47 1    
    90   45  122 1    
    91   46  123 1    
    92   46  124 1    
    93   46  125 1    
    94   47   48 am   BACKBONE|DICT|INTERRES
    95   47  126 1    
    96   48   49 2    
    97   48   50 1    
    98   50   51 1    
    99   50   52 1    
   100   50  127 1    
   101   51  128 1    
   102   51  129 1    
   103   51  130 1    
   104   52   53 am   BACKBONE|DICT|INTERRES
   105   52  131 1    
   106   53   54 2    
   107   53   55 1    
   108   55   56 1    
   109   55   59 1    
   110   55  132 1    
   111   56   57 1    
   112   56  133 1    
   113   56  134 1    
   114   57   58 1    
   115   58  135 1    
   116   58  136 1    
   117   59   60 am   BACKBONE|DICT|INTERRES
   118   59  137 1    
   119   60   61 2    
   120   60   62 1    
   121   62   63 1    
   122   62   64 1    
   123   62  138 1    
   124   63  139 1    
   125   63  140 1    
   126   63  141 1    
   127   64   65 am   BACKBONE|DICT|INTERRES
   128   64  142 1    
   129   65   66 2    
   130   65   67 1    
   131   67   68 1    
   132   67   69 1    
   133   67  143 1    
   134   68  144 1    
   135   68  145 1    
   136   68  146 1    
   137   69   70 am   BACKBONE|DICT|INTERRES
   138   69  147 1    
   139   70   71 2    
   140   70   72 1    
   141   72   73 1    
   142   72   74 1    
   143   72  148 1    
   144   73  149 1    
   145   73  150 1    
   146   73  151 1    
   147   74   75 am   BACKBONE|DICT|INTERRES
   148   74  152 1    
   149   75   76 2    
   150   75   77 1    
   151   77   78 1    
   152   77   79 1    
   153   77  153 1    
   154   78  154 1    
   155   78  155 1    
   156   78  156 1    
   157   79   80 am   BACKBONE|DICT|INTERRES
   158   79  157 1    
   159   80   81 2    
@<TRIPOS>SUBSTRUCTURE
     1 UNK         1 GROUP             0       ****    0 ROOT    
