@<TRIPOS>MOLECULE
3R207
157   159    1
SMALL
USER_CHARGES


@<TRIPOS>ATOM
      1 CA        -49.7562  -28.0926   -0.4454 C.3       0 UNK        -0.1975 
      2 C         -49.7309  -27.7886    1.0455 C.2       0 UNK         0.4852 
      3 O         -49.8572  -26.6262    1.4343 O.2       0 UNK        -0.5216 
      4 N         -49.5777  -28.8242    1.8812 N.am      1 UNK        -0.4461 
      5 CA        -49.4592  -28.7109    3.3382 C.3       1 UNK         0.0864 
      6 C6        -49.8259  -30.0508    4.0285 C.3       14 UNK        -0.0898 
      7 S7        -50.3620  -29.8143    5.7543 S.3       14 UNK        -0.2598 
      8 C8        -52.1314  -29.4546    5.5287 C.3       14 UNK         0.0286 
      9 C9        -52.6556  -28.6344    6.6951 C.ar      14 UNK        -0.0844 
     10 C10       -52.5701  -27.2396    6.6626 C.ar      14 UNK        -0.0881 
     11 C11       -53.0028  -26.4742    7.7495 C.ar      14 UNK        -0.0643 
     12 C12       -53.5297  -27.1161    8.8736 C.ar      14 UNK        -0.0930 
     13 C13       -53.6391  -28.5105    8.9090 C.ar      14 UNK        -0.0827 
     14 C14       -53.2023  -29.2648    7.8159 C.ar      14 UNK        -0.1249 
     15 C15       -54.1837  -29.2051   10.1464 C.3       14 UNK         0.0141 
     16 S16       -55.9232  -28.7767   10.4674 S.3       14 UNK        -0.2313 
     17 C17       -56.4009  -30.0234   11.7135 C.3       14 UNK        -0.0915 
     18 CA        -56.0443  -29.6029   13.1719 C.3       13 UNK         0.0968 
     19 C         -56.8473  -30.3854   14.2585 C.2       13 UNK         0.5732 
     20 N         -56.3092  -30.5858   15.4560 N.am      13 UNK        -0.7310 
     21 O         -57.9875  -30.7858   14.0338 O.2       13 UNK        -0.5035 
     22 N         -54.5881  -29.5577   13.3996 N.am      13 UNK        -0.4233 
     23 C         -53.7495  -30.6061   13.4030 C.2       13 UNK         0.4989 
     24 O         -54.1133  -31.7736   13.2577 O.2       13 UNK        -0.4996 
     25 CA        -52.2441  -30.3176   13.5676 C.3       12 UNK         0.0216 
     26 CB        -51.4413  -30.8632   12.3727 C.3       12 UNK        -0.1964 
     27 N         -51.9322  -28.8953   13.7300 N.am      12 UNK        -0.4276 
     28 C         -52.0073  -28.2196   14.8803 C.2       12 UNK         0.5020 
     29 O         -52.4081  -28.7073   15.9402 O.2       12 UNK        -0.5489 
     30 CA        -51.6206  -26.7334   14.8016 C.3       11 UNK         0.0294 
     31 CB        -52.8225  -25.9026   14.3222 C.3       11 UNK        -0.2019 
     32 N         -51.1335  -26.2105   16.0806 N.am      11 UNK        -0.4493 
     33 C         -49.9938  -26.6046   16.6731 C.2       11 UNK         0.4932 
     34 O         -49.2211  -27.4214   16.1697 O.2       11 UNK        -0.5029 
     35 CA        -49.6331  -25.9912   18.0403 C.3       10 UNK         0.0280 
     36 CB        -48.1439  -25.6042   18.1081 C.3       10 UNK        -0.1976 
     37 N         -50.4351  -24.8046   18.3358 N.am      10 UNK        -0.4242 
     38 C         -51.4265  -24.7371   19.2347 C.2       10 UNK         0.5072 
     39 O         -51.7576  -25.6752   19.9611 O.2       10 UNK        -0.5224 
     40 CA        -52.1921  -23.4031   19.3501 C.3       9 UNK         0.0343 
     41 CB        -51.7131  -22.6142   20.5797 C.3       9 UNK        -0.2003 
     42 N         -52.0885  -22.5472   18.1644 N.am      9 UNK        -0.4272 
     43 C         -52.5728  -22.8503   16.9523 C.2       9 UNK         0.4988 
     44 O         -53.1991  -23.8820   16.7132 O.2       9 UNK        -0.5108 
     45 CA        -52.2817  -21.8639   15.8042 C.3       8 UNK         0.0248 
     46 CB        -51.8205  -20.4680   16.2816 C.3       8 UNK        -0.2001 
     47 N         -51.3214  -22.3999   14.8305 N.am      8 UNK        -0.4140 
     48 C         -50.1048  -22.9095   15.0659 C.2       8 UNK         0.5028 
     49 O         -49.6473  -23.0593   16.2011 O.2       8 UNK        -0.5428 
     50 CA        -49.2339  -23.2755   13.8394 C.3       7 UNK         0.0264 
     51 CB        -47.9401  -24.0091   14.2415 C.3       7 UNK        -0.1988 
     52 N         -49.8809  -24.0487   12.7688 N.am      7 UNK        -0.4454 
     53 C         -50.8457  -23.6315   11.9338 C.2       7 UNK         0.5027 
     54 O         -51.4686  -22.5811   12.0963 O.2       7 UNK        -0.5083 
     55 CA        -51.1392  -24.4771   10.6726 C.3       6 UNK         0.0844 
     56 C56       -51.1243  -23.5557    9.4197 C.3       14 UNK        -0.0967 
     57 S57       -51.1658  -24.4163    7.8104 S.3       14 UNK        -0.2604 
     58 C58       -52.8987  -24.9574    7.6970 C.3       14 UNK         0.0134 
     59 N         -50.2095  -25.5989   10.5309 N.am      6 UNK        -0.4116 
     60 C         -50.4363  -26.8626   10.9100 C.2       5 UNK         0.5034 
     61 O         -51.4325  -27.2293   11.5321 O.2       5 UNK        -0.5045 
     62 CA        -49.3626  -27.9027   10.5519 C.3       5 UNK         0.0224 
     63 CB        -49.7961  -28.7078    9.3173 C.3       5 UNK        -0.1978 
     64 N         -48.0528  -27.2942   10.3045 N.am      5 UNK        -0.4737 
     65 C         -47.2480  -26.8440   11.2788 C.2       4 UNK         0.5027 
     66 O         -47.5068  -26.9591   12.4757 O.2       4 UNK        -0.5211 
     67 CA        -45.9592  -26.1133   10.8593 C.3       4 UNK         0.0297 
     68 CB        -44.7783  -27.0957   10.8140 C.3       4 UNK        -0.1993 
     69 N         -46.0656  -25.4256    9.5702 N.am      4 UNK        -0.4486 
     70 C         -46.9085  -24.4191    9.2978 C.2       3 UNK         0.4961 
     71 O         -47.6674  -23.9180   10.1268 O.2       3 UNK        -0.5105 
     72 CA        -46.9471  -23.9183    7.8426 C.3       3 UNK         0.0299 
     73 CB        -46.0256  -22.7005    7.6712 C.3       3 UNK        -0.1972 
     74 N         -46.6032  -24.9383    6.8417 N.am      3 UNK        -0.4305 
     75 C         -47.2740  -26.0836    6.6572 C.2       2 UNK         0.5006 
     76 O         -48.2174  -26.4500    7.3607 O.2       2 UNK        -0.5106 
     77 CA        -46.7911  -26.9981    5.5300 C.3       2 UNK         0.0296 
     78 CB        -45.8112  -28.0571    6.0688 C.3       2 UNK        -0.2002 
     79 N         -47.9700  -27.6369    4.9577 N.am      2 UNK        -0.4032 
     80 C         -48.0598  -28.1944    3.7465 C.2       1 UNK         0.5000 
     81 O         -47.1027  -28.3114    2.9744 O.2       1 UNK        -0.5238 
     82 H82       -50.6968  -27.7567   -0.8812 H         1 UNK         0.0889 
     83 H83       -48.9418  -27.5712   -0.9478 H         1 UNK         0.0889 
     84 H84       -49.6511  -29.1586   -0.6464 H         1 UNK         0.0889 
     85 H85       -49.4403  -29.7497    1.5010 H         1 UNK         0.3028 
     86 H86       -50.1839  -27.9562    3.6528 H         1 UNK         0.0864 
     87 H87       -48.9875  -30.7498    4.0068 H         1 UNK         0.0720 
     88 H88       -50.6388  -30.5471    3.4953 H         1 UNK         0.0720 
     89 H89       -52.6841  -30.3908    5.4361 H         1 UNK         0.0814 
     90 H90       -52.2903  -28.9095    4.5970 H         1 UNK         0.0814 
     91 H91       -52.1450  -26.7459    5.7995 H         1 UNK         0.1469 
     92 H92       -53.8533  -26.5348    9.7260 H         1 UNK         0.1381 
     93 H93       -53.2636  -30.3441    7.8447 H         1 UNK         0.1206 
     94 H94       -53.5766  -28.8970   10.9957 H         1 UNK         0.0813 
     95 H95       -54.0831  -30.2881   10.0600 H         1 UNK         0.0813 
     96 H96       -57.4790  -30.1496   11.6034 H         1 UNK         0.0638 
     97 H97       -55.9650  -30.9904   11.4592 H         1 UNK         0.0638 
     98 H98       -56.3852  -28.5748   13.2976 H         1 UNK         0.0568 
     99 H99       -55.3809  -30.2525   15.6623 H         1 UNK         0.3450 
    100 H100      -56.8372  -31.0807   16.1572 H         1 UNK         0.3450 
    101 H101      -54.1990  -28.6406   13.5542 H         1 UNK         0.2987 
    102 H102      -51.9166  -30.8510   14.4626 H         1 UNK         0.0766 
    103 H103      -51.6109  -31.9324   12.2387 H         1 UNK         0.0798 
    104 H104      -50.3700  -30.7261   12.5206 H         1 UNK         0.0798 
    105 H105      -51.7154  -30.3713   11.4399 H         1 UNK         0.0798 
    106 H106      -51.6784  -28.3793   12.8870 H         1 UNK         0.3198 
    107 H107      -50.8091  -26.6251   14.0792 H         1 UNK         0.0843 
    108 H108      -52.5642  -24.8502   14.2191 H         1 UNK         0.0831 
    109 H109      -53.6623  -25.9745   15.0145 H         1 UNK         0.0831 
    110 H110      -53.1753  -26.2390   13.3467 H         1 UNK         0.0831 
    111 H111      -51.7362  -25.5531   16.5600 H         1 UNK         0.3133 
    112 H112      -49.8118  -26.7659   18.7882 H         1 UNK         0.0566 
    113 H113      -47.5021  -26.4734   17.9588 H         1 UNK         0.0814 
    114 H114      -47.8840  -24.8709   17.3438 H         1 UNK         0.0814 
    115 H115      -47.8890  -25.1800   19.0793 H         1 UNK         0.0814 
    116 H116      -50.2440  -23.9978   17.7430 H         1 UNK         0.3091 
    117 H117      -53.2471  -23.6479   19.4906 H         1 UNK         0.0702 
    118 H118      -52.3034  -21.7095   20.7266 H         1 UNK         0.0785 
    119 H119      -50.6657  -22.3229   20.4889 H         1 UNK         0.0785 
    120 H120      -51.8076  -23.2111   21.4880 H         1 UNK         0.0785 
    121 H121      -51.5586  -21.6936   18.2650 H         1 UNK         0.2998 
    122 H122      -53.2241  -21.7355   15.2699 H         1 UNK         0.0697 
    123 H123      -50.8415  -20.4964   16.7617 H         1 UNK         0.0825 
    124 H124      -51.7498  -19.7759   15.4424 H         1 UNK         0.0825 
    125 H125      -52.5300  -20.0354   16.9886 H         1 UNK         0.0825 
    126 H126      -51.5987  -22.3422   13.8514 H         1 UNK         0.3029 
    127 H127      -48.9359  -22.3207   13.4012 H         1 UNK         0.0897 
    128 H128      -47.2835  -24.1527   13.3832 H         1 UNK         0.0792 
    129 H129      -47.3743  -23.4432   14.9829 H         1 UNK         0.0792 
    130 H130      -48.1519  -24.9904   14.6685 H         1 UNK         0.0792 
    131 H131      -49.4370  -24.9281   12.5454 H         1 UNK         0.3086 
    132 H132      -52.1514  -24.8701   10.7857 H         1 UNK         0.0583 
    133 H133      -51.9551  -22.8482    9.4564 H         1 UNK         0.1020 
    134 H134      -50.2193  -22.9440    9.4145 H         1 UNK         0.1020 
    135 H135      -53.4949  -24.4995    8.4874 H         1 UNK         0.0694 
    136 H136      -53.3173  -24.6013    6.7546 H         1 UNK         0.0694 
    137 H137      -49.3447  -25.3856   10.0505 H         1 UNK         0.2989 
    138 H138      -49.2739  -28.5910   11.3954 H         1 UNK         0.1055 
    139 H139      -50.7205  -29.2518    9.5115 H         1 UNK         0.0806 
    140 H140      -49.9854  -28.0621    8.4587 H         1 UNK         0.0806 
    141 H141      -49.0431  -29.4407    9.0280 H         1 UNK         0.0806 
    142 H142      -47.8116  -27.1187    9.3345 H         1 UNK         0.3061 
    143 H143      -45.7494  -25.3586   11.6202 H         1 UNK         0.0734 
    144 H144      -43.8399  -26.5816   10.6055 H         1 UNK         0.0832 
    145 H145      -44.6596  -27.6057   11.7712 H         1 UNK         0.0832 
    146 H146      -44.9196  -27.8635   10.0520 H         1 UNK         0.0832 
    147 H147      -45.4821  -25.7683    8.8214 H         1 UNK         0.3156 
    148 H148      -47.9722  -23.5997    7.6414 H         1 UNK         0.0589 
    149 H149      -46.1211  -22.2660    6.6760 H         1 UNK         0.0808 
    150 H150      -46.2769  -21.9177    8.3886 H         1 UNK         0.0808 
    151 H151      -44.9778  -22.9605    7.8270 H         1 UNK         0.0808 
    152 H152      -45.8294  -24.7246    6.2280 H         1 UNK         0.3098 
    153 H153      -46.3021  -26.3950    4.7620 H         1 UNK         0.0720 
    154 H154      -44.9350  -27.5890    6.5187 H         1 UNK         0.0791 
    155 H155      -46.2771  -28.6835    6.8310 H         1 UNK         0.0791 
    156 H156      -45.4541  -28.7110    5.2731 H         1 UNK         0.0791 
    157 H157      -48.7877  -27.5955    5.5559 H         1 UNK         0.3028 
@<TRIPOS>BOND
     1    1    2 1    
     2    1   82 1    
     3    1   83 1    
     4    1   84 1    
     5    2    3 2    
     6    2    4 am   BACKBONE|DICT|INTERRES
     7    4    5 1    
     8    4   85 1    
     9    5    6 1    
    10    5   80 1    
    11    5   86 1    
    12    6    7 1    
    13    6   87 1    
    14    6   88 1    
    15    7    8 1    
    16    8    9 1    
    17    8   89 1    
    18    8   90 1    
    19    9   10 ar   
    20    9   14 ar   
    21   10   11 ar   
    22   10   91 1    
    23   11   12 ar   
    24   11   58 1    
    25   12   13 ar   
    26   12   92 1    
    27   13   14 ar   
    28   13   15 1    
    29   14   93 1    
    30   15   16 1    
    31   15   94 1    
    32   15   95 1    
    33   16   17 1    
    34   17   18 1    
    35   17   96 1    
    36   17   97 1    
    37   18   19 1    
    38   18   22 1    
    39   18   98 1    
    40   19   20 am   BACKBONE|DICT|INTERRES
    41   19   21 2    
    42   20   99 1    
    43   20  100 1    
    44   22   23 am   BACKBONE|DICT|INTERRES
    45   22  101 1    
    46   23   24 2    
    47   23   25 1    
    48   25   26 1    
    49   25   27 1    
    50   25  102 1    
    51   26  103 1    
    52   26  104 1    
    53   26  105 1    
    54   27   28 am   BACKBONE|DICT|INTERRES
    55   27  106 1    
    56   28   29 2    
    57   28   30 1    
    58   30   31 1    
    59   30   32 1    
    60   30  107 1    
    61   31  108 1    
    62   31  109 1    
    63   31  110 1    
    64   32   33 am   BACKBONE|DICT|INTERRES
    65   32  111 1    
    66   33   34 2    
    67   33   35 1    
    68   35   36 1    
    69   35   37 1    
    70   35  112 1    
    71   36  113 1    
    72   36  114 1    
    73   36  115 1    
    74   37   38 am   BACKBONE|DICT|INTERRES
    75   37  116 1    
    76   38   39 2    
    77   38   40 1    
    78   40   41 1    
    79   40   42 1    
    80   40  117 1    
    81   41  118 1    
    82   41  119 1    
    83   41  120 1    
    84   42   43 am   BACKBONE|DICT|INTERRES
    85   42  121 1    
    86   43   44 2    
    87   43   45 1    
    88   45   46 1    
    89   45   47 1    
    90   45  122 1    
    91   46  123 1    
    92   46  124 1    
    93   46  125 1    
    94   47   48 am   BACKBONE|DICT|INTERRES
    95   47  126 1    
    96   48   49 2    
    97   48   50 1    
    98   50   51 1    
    99   50   52 1    
   100   50  127 1    
   101   51  128 1    
   102   51  129 1    
   103   51  130 1    
   104   52   53 am   BACKBONE|DICT|INTERRES
   105   52  131 1    
   106   53   54 2    
   107   53   55 1    
   108   55   56 1    
   109   55   59 1    
   110   55  132 1    
   111   56   57 1    
   112   56  133 1    
   113   56  134 1    
   114   57   58 1    
   115   58  135 1    
   116   58  136 1    
   117   59   60 am   BACKBONE|DICT|INTERRES
   118   59  137 1    
   119   60   61 2    
   120   60   62 1    
   121   62   63 1    
   122   62   64 1    
   123   62  138 1    
   124   63  139 1    
   125   63  140 1    
   126   63  141 1    
   127   64   65 am   BACKBONE|DICT|INTERRES
   128   64  142 1    
   129   65   66 2    
   130   65   67 1    
   131   67   68 1    
   132   67   69 1    
   133   67  143 1    
   134   68  144 1    
   135   68  145 1    
   136   68  146 1    
   137   69   70 am   BACKBONE|DICT|INTERRES
   138   69  147 1    
   139   70   71 2    
   140   70   72 1    
   141   72   73 1    
   142   72   74 1    
   143   72  148 1    
   144   73  149 1    
   145   73  150 1    
   146   73  151 1    
   147   74   75 am   BACKBONE|DICT|INTERRES
   148   74  152 1    
   149   75   76 2    
   150   75   77 1    
   151   77   78 1    
   152   77   79 1    
   153   77  153 1    
   154   78  154 1    
   155   78  155 1    
   156   78  156 1    
   157   79   80 am   BACKBONE|DICT|INTERRES
   158   79  157 1    
   159   80   81 2    
@<TRIPOS>SUBSTRUCTURE
     1 UNK         1 GROUP             0       ****    0 ROOT    
