@<TRIPOS>MOLECULE
3R207
157   159    1
SMALL
USER_CHARGES


@<TRIPOS>ATOM
      1 CA        -47.4662  -27.5833    0.3575 C.3       0 UNK        -0.1975 
      2 C         -48.6721  -27.4348    1.2732 C.2       0 UNK         0.4852 
      3 O         -49.2690  -26.3585    1.3304 O.2       0 UNK        -0.5216 
      4 N         -49.0416  -28.5080    1.9848 N.am      1 UNK        -0.4461 
      5 CA        -50.1291  -28.5235    2.9637 C.3       1 UNK         0.0864 
      6 C6        -50.6770  -29.9604    3.1705 C.3       14 UNK        -0.0898 
      7 S7        -52.2595  -29.9893    4.0841 S.3       14 UNK        -0.2598 
      8 C8        -51.7457  -30.6973    5.6838 C.3       14 UNK         0.0286 
      9 C9        -52.4545  -30.0207    6.8471 C.ar      14 UNK        -0.0844 
     10 C10       -52.0917  -28.7227    7.2140 C.ar      14 UNK        -0.0881 
     11 C11       -52.6982  -28.0931    8.3030 C.ar      14 UNK        -0.0643 
     12 C12       -53.6867  -28.7692    9.0229 C.ar      14 UNK        -0.0930 
     13 C13       -54.0533  -30.0727    8.6747 C.ar      14 UNK        -0.0827 
     14 C14       -53.4384  -30.6922    7.5804 C.ar      14 UNK        -0.1249 
     15 C15       -55.1118  -30.8131    9.4801 C.3       14 UNK         0.0141 
     16 S16       -54.3689  -31.8383   10.7907 S.3       14 UNK        -0.2313 
     17 C17       -54.0610  -30.6233   12.1205 C.3       14 UNK        -0.0915 
     18 CA        -55.0951  -30.7350   13.2723 C.3       13 UNK         0.0968 
     19 C         -54.7829  -31.9267   14.2211 C.2       13 UNK         0.5732 
     20 N         -55.3915  -33.0830   13.9957 N.am      13 UNK        -0.7310 
     21 O         -53.9718  -31.8160   15.1391 O.2       13 UNK        -0.5035 
     22 N         -55.2073  -29.4651   14.0041 N.am      13 UNK        -0.4233 
     23 C         -56.1965  -29.1691   14.8583 C.2       13 UNK         0.4989 
     24 O         -57.1667  -29.9016   15.0590 O.2       13 UNK        -0.4996 
     25 CA        -56.1033  -27.8385   15.6290 C.3       12 UNK         0.0216 
     26 CB        -55.6146  -28.0929   17.0639 C.3       12 UNK        -0.1964 
     27 N         -55.2553  -26.8203   14.9950 N.am      12 UNK        -0.4276 
     28 C         -55.5710  -26.1768   13.8589 C.2       12 UNK         0.5020 
     29 O         -56.5918  -26.4207   13.2129 O.2       12 UNK        -0.5489 
     30 CA        -54.5934  -25.0980   13.3398 C.3       11 UNK         0.0294 
     31 CB        -55.3042  -23.9961   12.5265 C.3       11 UNK        -0.2019 
     32 N         -53.7360  -24.5014   14.3700 N.am      11 UNK        -0.4493 
     33 C         -54.1034  -23.8391   15.4775 C.2       11 UNK         0.4932 
     34 O         -55.2726  -23.5855   15.7718 O.2       11 UNK        -0.5029 
     35 CA        -52.9576  -23.4214   16.4267 C.3       10 UNK         0.0280 
     36 CB        -53.4523  -23.0960   17.8515 C.3       10 UNK        -0.1976 
     37 N         -51.8581  -24.3976   16.4779 N.am      10 UNK        -0.4242 
     38 C         -51.9509  -25.7042   16.7764 C.2       10 UNK         0.5072 
     39 O         -53.0100  -26.2528   17.0809 O.2       10 UNK        -0.5224 
     40 CA        -50.6857  -26.5769   16.6646 C.3       9 UNK         0.0343 
     41 CB        -50.9072  -27.6965   15.6317 C.3       9 UNK        -0.2003 
     42 N         -49.4766  -25.8327   16.3027 N.am      9 UNK        -0.4272 
     43 C         -48.7351  -25.1079   17.1518 C.2       9 UNK         0.4988 
     44 O         -48.9629  -25.0220   18.3587 O.2       9 UNK        -0.5108 
     45 CA        -47.5625  -24.3135   16.5456 C.3       8 UNK         0.0248 
     46 CB        -46.3268  -25.2111   16.3753 C.3       8 UNK        -0.2001 
     47 N         -47.8933  -23.6800   15.2642 N.am      8 UNK        -0.4140 
     48 C         -48.8562  -22.7608   15.0936 C.2       8 UNK         0.5028 
     49 O         -49.5549  -22.3190   16.0057 O.2       8 UNK        -0.5428 
     50 CA        -49.1356  -22.3087   13.6522 C.3       7 UNK         0.0264 
     51 CB        -48.1012  -21.2752   13.1775 C.3       7 UNK        -0.1988 
     52 N         -49.1790  -23.4421   12.7268 N.am      7 UNK        -0.4454 
     53 C         -50.1247  -24.3934   12.7511 C.2       7 UNK         0.5027 
     54 O         -51.0872  -24.3846   13.5169 O.2       7 UNK        -0.5083 
     55 CA        -49.9552  -25.5743   11.7837 C.3       6 UNK         0.0844 
     56 C56       -50.5479  -25.2225   10.3991 C.3       14 UNK        -0.0967 
     57 S57       -50.5524  -26.6753    9.3013 S.3       14 UNK        -0.2604 
     58 C58       -52.2754  -26.6914    8.7119 C.3       14 UNK         0.0134 
     59 N         -48.5559  -26.0070   11.7161 N.am      6 UNK        -0.4116 
     60 C         -47.8934  -26.5944   12.7244 C.2       5 UNK         0.5034 
     61 O         -48.4040  -26.8625   13.8102 O.2       5 UNK        -0.5045 
     62 CA        -46.3973  -26.8923   12.5150 C.3       5 UNK         0.0224 
     63 CB        -46.2107  -28.2872   11.8982 C.3       5 UNK        -0.1978 
     64 N         -45.7176  -25.8984   11.6820 N.am      5 UNK        -0.4737 
     65 C         -45.6342  -24.5892   11.9576 C.2       4 UNK         0.5027 
     66 O         -46.0341  -24.0899   13.0098 O.2       4 UNK        -0.5211 
     67 CA        -45.0732  -23.6769   10.8483 C.3       4 UNK         0.0297 
     68 CB        -43.5928  -23.3640   11.1147 C.3       4 UNK        -0.1993 
     69 N         -45.2238  -24.2116    9.4845 N.am      4 UNK        -0.4486 
     70 C         -46.3886  -24.5510    8.9133 C.2       3 UNK         0.4961 
     71 O         -47.4786  -24.4499    9.4827 O.2       3 UNK        -0.5105 
     72 CA        -46.3249  -25.1522    7.5023 C.3       3 UNK         0.0299 
     73 CB        -45.5354  -26.4770    7.4901 C.3       3 UNK        -0.1972 
     74 N         -47.6926  -25.3895    7.0505 N.am      3 UNK        -0.4305 
     75 C         -48.1036  -25.5473    5.7895 C.2       2 UNK         0.5006 
     76 O         -47.3621  -25.4908    4.8054 O.2       2 UNK        -0.5106 
     77 CA        -49.6161  -25.7650    5.6110 C.3       2 UNK         0.0296 
     78 CB        -50.3542  -24.4189    5.5302 C.3       2 UNK        -0.2002 
     79 N         -49.9496  -26.5679    4.4328 N.am      2 UNK        -0.4032 
     80 C         -49.6448  -27.8629    4.2718 C.2       1 UNK         0.5000 
     81 O         -49.0133  -28.5296    5.0953 O.2       1 UNK        -0.5238 
     82 H82       -47.0487  -28.5894    0.3920 H         1 UNK         0.0889 
     83 H83       -46.6855  -26.8817    0.6505 H         1 UNK         0.0889 
     84 H84       -47.7487  -27.3686   -0.6728 H         1 UNK         0.0889 
     85 H85       -48.4992  -29.3579    1.9188 H         1 UNK         0.3028 
     86 H86       -50.9505  -27.9243    2.5630 H         1 UNK         0.0864 
     87 H87       -50.8721  -30.4156    2.1981 H         1 UNK         0.0720 
     88 H88       -49.9383  -30.6053    3.6499 H         1 UNK         0.0720 
     89 H89       -51.9416  -31.7706    5.6776 H         1 UNK         0.0814 
     90 H90       -50.6701  -30.5856    5.8264 H         1 UNK         0.0814 
     91 H91       -51.3209  -28.2077    6.6604 H         1 UNK         0.1469 
     92 H92       -54.1638  -28.2821    9.8615 H         1 UNK         0.1381 
     93 H93       -53.7170  -31.7018    7.3102 H         1 UNK         0.1206 
     94 H94       -55.6880  -31.4593    8.8161 H         1 UNK         0.0813 
     95 H95       -55.8278  -30.1145    9.9163 H         1 UNK         0.0813 
     96 H96       -53.0412  -30.7507   12.4889 H         1 UNK         0.0638 
     97 H97       -54.0915  -29.6240   11.6893 H         1 UNK         0.0638 
     98 H98       -56.0757  -30.9103   12.8243 H         1 UNK         0.0568 
     99 H99       -55.1909  -33.8682   14.5947 H         1 UNK         0.3450 
    100 H100      -56.0373  -33.1882   13.2289 H         1 UNK         0.3450 
    101 H101      -54.4299  -28.8282   13.9280 H         1 UNK         0.2987 
    102 H102      -57.1155  -27.4326   15.6884 H         1 UNK         0.0766 
    103 H103      -56.2612  -28.8052   17.5783 H         1 UNK         0.0798 
    104 H104      -55.6138  -27.1748   17.6520 H         1 UNK         0.0798 
    105 H105      -54.6034  -28.5018   17.0784 H         1 UNK         0.0798 
    106 H106      -54.4239  -26.5408   15.5062 H         1 UNK         0.3198 
    107 H107      -53.9171  -25.6185   12.6598 H         1 UNK         0.0843 
    108 H108      -56.0435  -23.4656   13.1274 H         1 UNK         0.0831 
    109 H109      -55.8258  -24.4159   11.6656 H         1 UNK         0.0831 
    110 H110      -54.5928  -23.2636   12.1450 H         1 UNK         0.0831 
    111 H111      -52.7334  -24.5872   14.1980 H         1 UNK         0.3133 
    112 H112      -52.5320  -22.5095   16.0056 H         1 UNK         0.0566 
    113 H113      -53.9347  -23.9563   18.3171 H         1 UNK         0.0814 
    114 H114      -54.1786  -22.2824   17.8387 H         1 UNK         0.0814 
    115 H115      -52.6294  -22.7838   18.4944 H         1 UNK         0.0814 
    116 H116      -50.9506  -24.0345   16.2115 H         1 UNK         0.3091 
    117 H117      -50.5298  -27.0424   17.6399 H         1 UNK         0.0702 
    118 H118      -50.0400  -28.3542   15.5686 H         1 UNK         0.0785 
    119 H119      -51.0931  -27.2922   14.6358 H         1 UNK         0.0785 
    120 H120      -51.7628  -28.3186   15.8981 H         1 UNK         0.0785 
    121 H121      -49.1724  -25.9160   15.3367 H         1 UNK         0.2998 
    122 H122      -47.3079  -23.5151   17.2457 H         1 UNK         0.0697 
    123 H123      -45.4789  -24.6510   15.9804 H         1 UNK         0.0825 
    124 H124      -46.5227  -26.0431   15.6992 H         1 UNK         0.0825 
    125 H125      -46.0193  -25.6353   17.3320 H         1 UNK         0.0825 
    126 H126      -47.3360  -23.9511   14.4576 H         1 UNK         0.3029 
    127 H127      -50.1182  -21.8310   13.6411 H         1 UNK         0.0897 
    128 H128      -48.0946  -20.4048   13.8350 H         1 UNK         0.0792 
    129 H129      -48.3289  -20.9190   12.1727 H         1 UNK         0.0792 
    130 H130      -47.0894  -21.6805   13.1681 H         1 UNK         0.0792 
    131 H131      -48.4049  -23.5423   12.0849 H         1 UNK         0.3086 
    132 H132      -50.5346  -26.4051   12.1933 H         1 UNK         0.0583 
    133 H133      -51.5664  -24.8461   10.5113 H         1 UNK         0.1020 
    134 H134      -49.9904  -24.4171    9.9195 H         1 UNK         0.1020 
    135 H135      -52.9409  -26.3166    9.4907 H         1 UNK         0.0694 
    136 H136      -52.3742  -26.0129    7.8633 H         1 UNK         0.0694 
    137 H137      -48.0565  -25.7602   10.8686 H         1 UNK         0.2989 
    138 H138      -45.9203  -26.8827   13.4970 H         1 UNK         0.1055 
    139 H139      -46.6472  -28.3508   10.9003 H         1 UNK         0.0806 
    140 H140      -46.6896  -29.0515   12.5123 H         1 UNK         0.0806 
    141 H141      -45.1556  -28.5506   11.8220 H         1 UNK         0.0806 
    142 H142      -45.3525  -26.2174   10.7968 H         1 UNK         0.3061 
    143 H143      -45.6336  -22.7407   10.8938 H         1 UNK         0.0734 
    144 H144      -42.9726  -24.2591   11.0527 H         1 UNK         0.0832 
    145 H145      -43.2053  -22.6345   10.4033 H         1 UNK         0.0832 
    146 H146      -43.4570  -22.9428   12.1121 H         1 UNK         0.0832 
    147 H147      -44.3737  -24.3268    8.9507 H         1 UNK         0.3156 
    148 H148      -45.8475  -24.4257    6.8417 H         1 UNK         0.0589 
    149 H149      -45.5094  -26.9144    6.4918 H         1 UNK         0.0808 
    150 H150      -45.9774  -27.2141    8.1619 H         1 UNK         0.0808 
    151 H151      -44.4995  -26.3305    7.7973 H         1 UNK         0.0808 
    152 H152      -48.3711  -25.3714    7.8038 H         1 UNK         0.3098 
    153 H153      -49.9830  -26.3049    6.4835 H         1 UNK         0.0720 
    154 H154      -50.1593  -23.8110    6.4150 H         1 UNK         0.0791 
    155 H155      -51.4335  -24.5606    5.4698 H         1 UNK         0.0791 
    156 H156      -50.0405  -23.8397    4.6606 H         1 UNK         0.0791 
    157 H157      -50.3835  -26.0800    3.6615 H         1 UNK         0.3028 
@<TRIPOS>BOND
     1    1    2 1    
     2    1   82 1    
     3    1   83 1    
     4    1   84 1    
     5    2    3 2    
     6    2    4 am   BACKBONE|DICT|INTERRES
     7    4    5 1    
     8    4   85 1    
     9    5    6 1    
    10    5   80 1    
    11    5   86 1    
    12    6    7 1    
    13    6   87 1    
    14    6   88 1    
    15    7    8 1    
    16    8    9 1    
    17    8   89 1    
    18    8   90 1    
    19    9   10 ar   
    20    9   14 ar   
    21   10   11 ar   
    22   10   91 1    
    23   11   12 ar   
    24   11   58 1    
    25   12   13 ar   
    26   12   92 1    
    27   13   14 ar   
    28   13   15 1    
    29   14   93 1    
    30   15   16 1    
    31   15   94 1    
    32   15   95 1    
    33   16   17 1    
    34   17   18 1    
    35   17   96 1    
    36   17   97 1    
    37   18   19 1    
    38   18   22 1    
    39   18   98 1    
    40   19   20 am   BACKBONE|DICT|INTERRES
    41   19   21 2    
    42   20   99 1    
    43   20  100 1    
    44   22   23 am   BACKBONE|DICT|INTERRES
    45   22  101 1    
    46   23   24 2    
    47   23   25 1    
    48   25   26 1    
    49   25   27 1    
    50   25  102 1    
    51   26  103 1    
    52   26  104 1    
    53   26  105 1    
    54   27   28 am   BACKBONE|DICT|INTERRES
    55   27  106 1    
    56   28   29 2    
    57   28   30 1    
    58   30   31 1    
    59   30   32 1    
    60   30  107 1    
    61   31  108 1    
    62   31  109 1    
    63   31  110 1    
    64   32   33 am   BACKBONE|DICT|INTERRES
    65   32  111 1    
    66   33   34 2    
    67   33   35 1    
    68   35   36 1    
    69   35   37 1    
    70   35  112 1    
    71   36  113 1    
    72   36  114 1    
    73   36  115 1    
    74   37   38 am   BACKBONE|DICT|INTERRES
    75   37  116 1    
    76   38   39 2    
    77   38   40 1    
    78   40   41 1    
    79   40   42 1    
    80   40  117 1    
    81   41  118 1    
    82   41  119 1    
    83   41  120 1    
    84   42   43 am   BACKBONE|DICT|INTERRES
    85   42  121 1    
    86   43   44 2    
    87   43   45 1    
    88   45   46 1    
    89   45   47 1    
    90   45  122 1    
    91   46  123 1    
    92   46  124 1    
    93   46  125 1    
    94   47   48 am   BACKBONE|DICT|INTERRES
    95   47  126 1    
    96   48   49 2    
    97   48   50 1    
    98   50   51 1    
    99   50   52 1    
   100   50  127 1    
   101   51  128 1    
   102   51  129 1    
   103   51  130 1    
   104   52   53 am   BACKBONE|DICT|INTERRES
   105   52  131 1    
   106   53   54 2    
   107   53   55 1    
   108   55   56 1    
   109   55   59 1    
   110   55  132 1    
   111   56   57 1    
   112   56  133 1    
   113   56  134 1    
   114   57   58 1    
   115   58  135 1    
   116   58  136 1    
   117   59   60 am   BACKBONE|DICT|INTERRES
   118   59  137 1    
   119   60   61 2    
   120   60   62 1    
   121   62   63 1    
   122   62   64 1    
   123   62  138 1    
   124   63  139 1    
   125   63  140 1    
   126   63  141 1    
   127   64   65 am   BACKBONE|DICT|INTERRES
   128   64  142 1    
   129   65   66 2    
   130   65   67 1    
   131   67   68 1    
   132   67   69 1    
   133   67  143 1    
   134   68  144 1    
   135   68  145 1    
   136   68  146 1    
   137   69   70 am   BACKBONE|DICT|INTERRES
   138   69  147 1    
   139   70   71 2    
   140   70   72 1    
   141   72   73 1    
   142   72   74 1    
   143   72  148 1    
   144   73  149 1    
   145   73  150 1    
   146   73  151 1    
   147   74   75 am   BACKBONE|DICT|INTERRES
   148   74  152 1    
   149   75   76 2    
   150   75   77 1    
   151   77   78 1    
   152   77   79 1    
   153   77  153 1    
   154   78  154 1    
   155   78  155 1    
   156   78  156 1    
   157   79   80 am   BACKBONE|DICT|INTERRES
   158   79  157 1    
   159   80   81 2    
@<TRIPOS>SUBSTRUCTURE
     1 UNK         1 GROUP             0       ****    0 ROOT    
