@<TRIPOS>MOLECULE
3R207
157   159    1
SMALL
USER_CHARGES


@<TRIPOS>ATOM
      1 CA        -45.4790  -28.3490   11.4749 C.3       0 UNK        -0.1975 
      2 C         -45.7954  -27.8739   10.0657 C.2       0 UNK         0.4852 
      3 O         -45.2561  -26.8571    9.6310 O.2       0 UNK        -0.5216 
      4 N         -46.6430  -28.6155    9.3359 N.am      1 UNK        -0.4461 
      5 CA        -47.1933  -28.2813    8.0075 C.3       1 UNK         0.0864 
      6 C6        -48.1595  -27.0629    8.0413 C.3       14 UNK        -0.0898 
      7 S7        -49.4682  -27.1794    9.2972 S.3       14 UNK        -0.2598 
      8 C8        -50.8076  -28.0076    8.3852 C.3       14 UNK         0.0286 
      9 C9        -52.1284  -27.7245    9.0774 C.ar      14 UNK        -0.0844 
     10 C10       -52.8968  -26.6287    8.6817 C.ar      14 UNK        -0.0881 
     11 C11       -54.0242  -26.2463    9.4141 C.ar      14 UNK        -0.0643 
     12 C12       -54.4174  -27.0227   10.5102 C.ar      14 UNK        -0.0930 
     13 C13       -53.6977  -28.1678   10.8739 C.ar      14 UNK        -0.0827 
     14 C14       -52.5476  -28.5070   10.1554 C.ar      14 UNK        -0.1249 
     15 C15       -54.1200  -29.0211   12.0652 C.3       14 UNK         0.0141 
     16 S16       -55.5744  -30.0581   11.7124 S.3       14 UNK        -0.2313 
     17 C17       -56.9986  -28.9197   11.8698 C.3       14 UNK        -0.0915 
     18 CA        -57.0488  -28.0350   13.1571 C.3       13 UNK         0.0968 
     19 C         -58.2924  -27.0960   13.1833 C.2       13 UNK         0.5732 
     20 N         -58.8625  -26.7823   14.3409 N.am      13 UNK        -0.7310 
     21 O         -58.7302  -26.6114   12.1423 O.2       13 UNK        -0.5035 
     22 N         -56.8175  -28.7786   14.4097 N.am      13 UNK        -0.4233 
     23 C         -57.5630  -29.7896   14.8789 C.2       13 UNK         0.4989 
     24 O         -58.5522  -30.2386   14.2966 O.2       13 UNK        -0.4996 
     25 CA        -57.1582  -30.3753   16.2486 C.3       12 UNK         0.0216 
     26 CB        -57.7616  -31.7732   16.5066 C.3       12 UNK        -0.1964 
     27 N         -55.7096  -30.3823   16.4899 N.am      12 UNK        -0.4276 
     28 C         -54.7569  -31.0249   15.7987 C.2       12 UNK         0.5020 
     29 O         -54.9844  -31.7475   14.8277 O.2       12 UNK        -0.5489 
     30 CA        -53.3039  -30.8272   16.2862 C.3       11 UNK         0.0294 
     31 CB        -52.2675  -31.4055   15.3040 C.3       11 UNK        -0.2019 
     32 N         -52.9806  -29.4190   16.5463 N.am      11 UNK        -0.4493 
     33 C         -53.3464  -28.7299   17.6384 C.2       11 UNK         0.4932 
     34 O         -53.9965  -29.2285   18.5577 O.2       11 UNK        -0.5029 
     35 CA        -52.9795  -27.2356   17.7210 C.3       10 UNK         0.0280 
     36 CB        -51.7365  -27.0410   18.6038 C.3       10 UNK        -0.1976 
     37 N         -52.7524  -26.5909   16.4265 N.am      10 UNK        -0.4242 
     38 C         -53.6453  -26.4892   15.4318 C.2       10 UNK         0.5072 
     39 O         -54.8047  -26.9024   15.4992 O.2       10 UNK        -0.5224 
     40 CA        -53.1446  -25.8512   14.1214 C.3       9 UNK         0.0343 
     41 CB        -53.4149  -24.3385   14.1593 C.3       9 UNK        -0.2003 
     42 N         -51.7305  -26.1080   13.7810 N.am      9 UNK        -0.4272 
     43 C         -51.1182  -27.3079   13.7941 C.2       9 UNK         0.4988 
     44 O         -51.6821  -28.3435   14.1486 O.2       9 UNK        -0.5108 
     45 CA        -49.6359  -27.3958   13.3782 C.3       8 UNK         0.0248 
     46 CB        -49.3504  -28.6915   12.5966 C.3       8 UNK        -0.2001 
     47 N         -49.1900  -26.2491   12.5845 N.am      8 UNK        -0.4140 
     48 C         -48.5109  -25.1959   13.0609 C.2       8 UNK         0.5028 
     49 O         -48.1566  -25.0859   14.2352 O.2       8 UNK        -0.5428 
     50 CA        -48.1922  -24.0525   12.0749 C.3       7 UNK         0.0264 
     51 CB        -46.7648  -24.1928   11.5255 C.3       7 UNK        -0.1988 
     52 N         -49.1280  -23.9356   10.9503 N.am      7 UNK        -0.4454 
     53 C         -50.4483  -23.7283   11.0756 C.2       7 UNK         0.5027 
     54 O         -51.0022  -23.5952   12.1670 O.2       7 UNK        -0.5083 
     55 CA        -51.2792  -23.6956    9.7740 C.3       6 UNK         0.0844 
     56 C56       -52.7625  -23.2890   10.0018 C.3       14 UNK        -0.0967 
     57 S57       -53.7956  -23.5715    8.5230 S.3       14 UNK        -0.2604 
     58 C58       -54.8227  -24.9988    9.0360 C.3       14 UNK         0.0134 
     59 N         -50.6061  -22.9421    8.7112 N.am      6 UNK        -0.4116 
     60 C         -50.2402  -21.6540    8.7508 C.2       5 UNK         0.5034 
     61 O         -50.5572  -20.8823    9.6578 O.2       5 UNK        -0.5045 
     62 CA        -49.3595  -21.1359    7.5916 C.3       5 UNK         0.0224 
     63 CB        -48.3106  -20.1186    8.0898 C.3       5 UNK        -0.1978 
     64 N         -48.6944  -22.1681    6.7742 N.am      5 UNK        -0.4737 
     65 C         -47.8442  -23.1236    7.1837 C.2       4 UNK         0.5027 
     66 O         -47.6340  -23.3843    8.3702 O.2       4 UNK        -0.5211 
     67 CA        -47.1555  -23.9634    6.0849 C.3       4 UNK         0.0297 
     68 CB        -47.0310  -23.2368    4.7261 C.3       4 UNK        -0.1993 
     69 N         -45.8520  -24.4814    6.5186 N.am      4 UNK        -0.4486 
     70 C         -44.7715  -23.7715    6.8840 C.2       3 UNK         0.4961 
     71 O         -44.6962  -22.5446    6.8002 O.2       3 UNK        -0.5105 
     72 CA        -43.5630  -24.5444    7.4497 C.3       3 UNK         0.0299 
     73 CB        -43.3319  -24.1666    8.9233 C.3       3 UNK        -0.1972 
     74 N         -43.7168  -25.9988    7.3551 N.am      3 UNK        -0.4305 
     75 C         -43.3558  -26.7409    6.2962 C.2       2 UNK         0.5006 
     76 O         -42.7831  -26.2831    5.3067 O.2       2 UNK        -0.5106 
     77 CA        -43.7077  -28.2444    6.3242 C.3       2 UNK         0.0296 
     78 CB        -42.5119  -29.0660    6.8323 C.3       2 UNK        -0.2002 
     79 N         -44.8884  -28.5580    7.1357 N.am      2 UNK        -0.4032 
     80 C         -46.1222  -28.0850    6.9049 C.2       1 UNK         0.5000 
     81 O         -46.4107  -27.4537    5.8863 O.2       1 UNK        -0.5238 
     82 H82       -44.4003  -28.4070   11.6177 H         1 UNK         0.0889 
     83 H83       -45.9010  -29.3326   11.6790 H         1 UNK         0.0889 
     84 H84       -45.8819  -27.6451   12.2028 H         1 UNK         0.0889 
     85 H85       -47.0251  -29.4558    9.7471 H         1 UNK         0.3028 
     86 H86       -47.7730  -29.1514    7.6963 H         1 UNK         0.0864 
     87 H87       -47.5995  -26.1512    8.2549 H         1 UNK         0.0720 
     88 H88       -48.6310  -26.9069    7.0697 H         1 UNK         0.0720 
     89 H89       -50.6161  -29.0808    8.3437 H         1 UNK         0.0814 
     90 H90       -50.8417  -27.6534    7.3540 H         1 UNK         0.0814 
     91 H91       -52.5790  -26.0338    7.8367 H         1 UNK         0.1469 
     92 H92       -55.2879  -26.7315   11.0778 H         1 UNK         0.1381 
     93 H93       -51.9588  -29.3634   10.4536 H         1 UNK         0.1206 
     94 H94       -53.3049  -29.6911   12.3419 H         1 UNK         0.0813 
     95 H95       -54.2870  -28.4110   12.9487 H         1 UNK         0.0813 
     96 H96       -57.9010  -29.5292   11.8055 H         1 UNK         0.0638 
     97 H97       -57.0134  -28.2932   10.9772 H         1 UNK         0.0638 
     98 H98       -56.2214  -27.3309   13.1011 H         1 UNK         0.0568 
     99 H99       -58.5004  -27.1489   15.2059 H         1 UNK         0.3450 
    100 H100      -59.6586  -26.1646   14.3466 H         1 UNK         0.3450 
    101 H101      -56.0536  -28.4245   14.9758 H         1 UNK         0.2987 
    102 H102      -57.5798  -29.6987   16.9933 H         1 UNK         0.0766 
    103 H103      -58.8514  -31.7429   16.4745 H         1 UNK         0.0798 
    104 H104      -57.4795  -32.1528   17.4886 H         1 UNK         0.0798 
    105 H105      -57.4351  -32.4978   15.7599 H         1 UNK         0.0798 
    106 H106      -55.3897  -29.8367   17.2853 H         1 UNK         0.3198 
    107 H107      -53.2094  -31.3811   17.2227 H         1 UNK         0.0843 
    108 H108      -52.3430  -30.9411   14.3203 H         1 UNK         0.0831 
    109 H109      -52.4125  -32.4780   15.1687 H         1 UNK         0.0831 
    110 H110      -51.2498  -31.2597   15.6658 H         1 UNK         0.0831 
    111 H111      -52.4953  -28.9316   15.7960 H         1 UNK         0.3133 
    112 H112      -53.8191  -26.7233   18.1950 H         1 UNK         0.0566 
    113 H113      -51.5180  -25.9839   18.7570 H         1 UNK         0.0814 
    114 H114      -50.8533  -27.5083   18.1660 H         1 UNK         0.0814 
    115 H115      -51.8842  -27.4842   19.5898 H         1 UNK         0.0814 
    116 H116      -51.8258  -26.2267   16.2600 H         1 UNK         0.3091 
    117 H117      -53.7452  -26.2659   13.3132 H         1 UNK         0.0702 
    118 H118      -53.3409  -23.8957   13.1684 H         1 UNK         0.0785 
    119 H119      -52.7159  -23.8183   14.8150 H         1 UNK         0.0785 
    120 H120      -54.4226  -24.1245   14.5193 H         1 UNK         0.0785 
    121 H121      -51.2076  -25.3057   13.4480 H         1 UNK         0.2998 
    122 H122      -49.0597  -27.4445   14.3041 H         1 UNK         0.0697 
    123 H123      -49.9835  -28.7773   11.7144 H         1 UNK         0.0825 
    124 H124      -49.5368  -29.5715   13.2136 H         1 UNK         0.0825 
    125 H125      -48.3125  -28.7412   12.2716 H         1 UNK         0.0825 
    126 H126      -49.4361  -26.2589   11.6028 H         1 UNK         0.3029 
    127 H127      -48.2485  -23.1207   12.6416 H         1 UNK         0.0897 
    128 H128      -46.6790  -25.0534   10.8634 H         1 UNK         0.0792 
    129 H129      -46.0387  -24.3204   12.3295 H         1 UNK         0.0792 
    130 H130      -46.4698  -23.3096   10.9583 H         1 UNK         0.0792 
    131 H131      -48.7198  -23.9680   10.0200 H         1 UNK         0.3086 
    132 H132      -51.2688  -24.7281    9.4351 H         1 UNK         0.0583 
    133 H133      -53.1931  -23.8556   10.8282 H         1 UNK         0.1020 
    134 H134      -52.8346  -22.2391   10.2895 H         1 UNK         0.1020 
    135 H135      -55.4545  -24.6843    9.8682 H         1 UNK         0.0694 
    136 H136      -55.4964  -25.2547    8.2175 H         1 UNK         0.0694 
    137 H137      -50.2935  -23.4842    7.9199 H         1 UNK         0.2989 
    138 H138      -50.0403  -20.6075    6.9222 H         1 UNK         0.1055 
    139 H139      -47.6265  -20.5687    8.8104 H         1 UNK         0.0806 
    140 H140      -48.7840  -19.2658    8.5780 H         1 UNK         0.0806 
    141 H141      -47.7157  -19.7253    7.2653 H         1 UNK         0.0806 
    142 H142      -48.8320  -22.0743    5.7769 H         1 UNK         0.3061 
    143 H143      -47.7872  -24.8389    5.9313 H         1 UNK         0.0734 
    144 H144      -46.5227  -22.2765    4.8220 H         1 UNK         0.0832 
    145 H145      -46.4686  -23.8374    4.0110 H         1 UNK         0.0832 
    146 H146      -48.0082  -23.0524    4.2789 H         1 UNK         0.0832 
    147 H147      -45.8011  -25.4887    6.6008 H         1 UNK         0.3156 
    148 H148      -42.6823  -24.2369    6.8822 H         1 UNK         0.0589 
    149 H149      -44.2057  -24.3884    9.5375 H         1 UNK         0.0808 
    150 H150      -42.4805  -24.7017    9.3438 H         1 UNK         0.0808 
    151 H151      -43.1273  -23.1001    9.0258 H         1 UNK         0.0808 
    152 H152      -44.1972  -26.4412    8.1374 H         1 UNK         0.3098 
    153 H153      -43.9216  -28.5485    5.2974 H         1 UNK         0.0720 
    154 H154      -42.7129  -30.1362    6.7782 H         1 UNK         0.0791 
    155 H155      -42.2636  -28.8210    7.8659 H         1 UNK         0.0791 
    156 H156      -41.6229  -28.8746    6.2295 H         1 UNK         0.0791 
    157 H157      -44.7295  -29.0567    7.9990 H         1 UNK         0.3028 
@<TRIPOS>BOND
     1    1    2 1    
     2    1   82 1    
     3    1   83 1    
     4    1   84 1    
     5    2    3 2    
     6    2    4 am   BACKBONE|DICT|INTERRES
     7    4    5 1    
     8    4   85 1    
     9    5    6 1    
    10    5   80 1    
    11    5   86 1    
    12    6    7 1    
    13    6   87 1    
    14    6   88 1    
    15    7    8 1    
    16    8    9 1    
    17    8   89 1    
    18    8   90 1    
    19    9   10 ar   
    20    9   14 ar   
    21   10   11 ar   
    22   10   91 1    
    23   11   12 ar   
    24   11   58 1    
    25   12   13 ar   
    26   12   92 1    
    27   13   14 ar   
    28   13   15 1    
    29   14   93 1    
    30   15   16 1    
    31   15   94 1    
    32   15   95 1    
    33   16   17 1    
    34   17   18 1    
    35   17   96 1    
    36   17   97 1    
    37   18   19 1    
    38   18   22 1    
    39   18   98 1    
    40   19   20 am   BACKBONE|DICT|INTERRES
    41   19   21 2    
    42   20   99 1    
    43   20  100 1    
    44   22   23 am   BACKBONE|DICT|INTERRES
    45   22  101 1    
    46   23   24 2    
    47   23   25 1    
    48   25   26 1    
    49   25   27 1    
    50   25  102 1    
    51   26  103 1    
    52   26  104 1    
    53   26  105 1    
    54   27   28 am   BACKBONE|DICT|INTERRES
    55   27  106 1    
    56   28   29 2    
    57   28   30 1    
    58   30   31 1    
    59   30   32 1    
    60   30  107 1    
    61   31  108 1    
    62   31  109 1    
    63   31  110 1    
    64   32   33 am   BACKBONE|DICT|INTERRES
    65   32  111 1    
    66   33   34 2    
    67   33   35 1    
    68   35   36 1    
    69   35   37 1    
    70   35  112 1    
    71   36  113 1    
    72   36  114 1    
    73   36  115 1    
    74   37   38 am   BACKBONE|DICT|INTERRES
    75   37  116 1    
    76   38   39 2    
    77   38   40 1    
    78   40   41 1    
    79   40   42 1    
    80   40  117 1    
    81   41  118 1    
    82   41  119 1    
    83   41  120 1    
    84   42   43 am   BACKBONE|DICT|INTERRES
    85   42  121 1    
    86   43   44 2    
    87   43   45 1    
    88   45   46 1    
    89   45   47 1    
    90   45  122 1    
    91   46  123 1    
    92   46  124 1    
    93   46  125 1    
    94   47   48 am   BACKBONE|DICT|INTERRES
    95   47  126 1    
    96   48   49 2    
    97   48   50 1    
    98   50   51 1    
    99   50   52 1    
   100   50  127 1    
   101   51  128 1    
   102   51  129 1    
   103   51  130 1    
   104   52   53 am   BACKBONE|DICT|INTERRES
   105   52  131 1    
   106   53   54 2    
   107   53   55 1    
   108   55   56 1    
   109   55   59 1    
   110   55  132 1    
   111   56   57 1    
   112   56  133 1    
   113   56  134 1    
   114   57   58 1    
   115   58  135 1    
   116   58  136 1    
   117   59   60 am   BACKBONE|DICT|INTERRES
   118   59  137 1    
   119   60   61 2    
   120   60   62 1    
   121   62   63 1    
   122   62   64 1    
   123   62  138 1    
   124   63  139 1    
   125   63  140 1    
   126   63  141 1    
   127   64   65 am   BACKBONE|DICT|INTERRES
   128   64  142 1    
   129   65   66 2    
   130   65   67 1    
   131   67   68 1    
   132   67   69 1    
   133   67  143 1    
   134   68  144 1    
   135   68  145 1    
   136   68  146 1    
   137   69   70 am   BACKBONE|DICT|INTERRES
   138   69  147 1    
   139   70   71 2    
   140   70   72 1    
   141   72   73 1    
   142   72   74 1    
   143   72  148 1    
   144   73  149 1    
   145   73  150 1    
   146   73  151 1    
   147   74   75 am   BACKBONE|DICT|INTERRES
   148   74  152 1    
   149   75   76 2    
   150   75   77 1    
   151   77   78 1    
   152   77   79 1    
   153   77  153 1    
   154   78  154 1    
   155   78  155 1    
   156   78  156 1    
   157   79   80 am   BACKBONE|DICT|INTERRES
   158   79  157 1    
   159   80   81 2    
@<TRIPOS>SUBSTRUCTURE
     1 UNK         1 GROUP             0       ****    0 ROOT    
