@<TRIPOS>MOLECULE
3R207
157   159    1
SMALL
USER_CHARGES


@<TRIPOS>ATOM
      1 CA        -51.7736  -30.8620   10.3319 C.3       0 UNK        -0.1975 
      2 C         -50.5435  -30.6835    9.4545 C.2       0 UNK         0.4852 
      3 O         -49.6652  -31.5471    9.4574 O.2       0 UNK        -0.5216 
      4 N         -50.4750  -29.5789    8.7033 N.am      1 UNK        -0.4461 
      5 CA        -49.4042  -29.2790    7.7519 C.3       1 UNK         0.0864 
      6 C6        -49.4408  -30.1399    6.4476 C.3       14 UNK        -0.0898 
      7 S7        -51.0879  -30.5366    5.7613 S.3       14 UNK        -0.2598 
      8 C8        -51.5739  -29.0212    4.8689 C.3       14 UNK         0.0286 
      9 C9        -52.3853  -28.0418    5.7153 C.ar      14 UNK        -0.0844 
     10 C10       -52.1874  -26.6646    5.5628 C.ar      14 UNK        -0.0881 
     11 C11       -52.9548  -25.7478    6.2880 C.ar      14 UNK        -0.0643 
     12 C12       -53.9343  -26.2152    7.1641 C.ar      14 UNK        -0.0930 
     13 C13       -54.1309  -27.5844    7.3426 C.ar      14 UNK        -0.0827 
     14 C14       -53.3652  -28.4935    6.6095 C.ar      14 UNK        -0.1249 
     15 C15       -55.1561  -28.0619    8.3531 C.3       14 UNK         0.0141 
     16 S16       -54.4573  -27.9460   10.0242 S.3       14 UNK        -0.2313 
     17 C17       -55.9492  -27.6357   11.0247 C.3       14 UNK        -0.0915 
     18 CA        -55.8995  -28.3017   12.4223 C.3       13 UNK         0.0968 
     19 C         -55.9702  -29.8573   12.3334 C.2       13 UNK         0.5732 
     20 N         -54.9508  -30.6051   12.7409 N.am      13 UNK        -0.7310 
     21 O         -56.9839  -30.3964   11.8948 O.2       13 UNK        -0.5035 
     22 N         -54.8021  -27.7644   13.2429 N.am      13 UNK        -0.4233 
     23 C         -54.7244  -27.9073   14.5726 C.2       13 UNK         0.4989 
     24 O         -55.6365  -28.3782   15.2556 O.2       13 UNK        -0.4996 
     25 CA        -53.4168  -27.4618   15.2591 C.3       12 UNK         0.0216 
     26 CB        -53.1965  -28.1595   16.6175 C.3       12 UNK        -0.1964 
     27 N         -52.2098  -27.6022   14.4363 N.am      12 UNK        -0.4276 
     28 C         -51.7637  -28.6936   13.7959 C.2       12 UNK         0.5020 
     29 O         -52.3731  -29.7622   13.7375 O.2       12 UNK        -0.5489 
     30 CA        -50.3927  -28.5683   13.1116 C.3       11 UNK         0.0294 
     31 CB        -50.5155  -27.7734   11.8047 C.3       11 UNK        -0.2019 
     32 N         -49.3960  -27.9407   13.9849 N.am      11 UNK        -0.4493 
     33 C         -48.8694  -28.5352   15.0664 C.2       11 UNK         0.4932 
     34 O         -49.0610  -29.7140   15.3647 O.2       11 UNK        -0.5029 
     35 CA        -48.0559  -27.6503   16.0161 C.3       10 UNK         0.0280 
     36 CB        -46.7829  -27.0769   15.3707 C.3       10 UNK        -0.1976 
     37 N         -48.9321  -26.5841   16.4856 N.am      10 UNK        -0.4242 
     38 C         -49.0023  -26.0927   17.7227 C.2       10 UNK         0.5072 
     39 O         -48.1924  -26.3657   18.6111 O.2       10 UNK        -0.5224 
     40 CA        -50.2047  -25.1663   18.0212 C.3       9 UNK         0.0343 
     41 CB        -50.1561  -24.5788   19.4447 C.3       9 UNK        -0.2003 
     42 N         -50.3967  -24.0655   17.0677 N.am      9 UNK        -0.4272 
     43 C         -50.7874  -24.1629   15.7895 C.2       9 UNK         0.4988 
     44 O         -50.9280  -25.2312   15.1883 O.2       9 UNK        -0.5108 
     45 CA        -51.0129  -22.8352   15.0506 C.3       8 UNK         0.0248 
     46 CB        -49.6758  -22.3123   14.5106 C.3       8 UNK        -0.2001 
     47 N         -51.9611  -22.9749   13.9410 N.am      8 UNK        -0.4140 
     48 C         -53.2688  -23.2418   14.0876 C.2       8 UNK         0.5028 
     49 O         -53.8207  -23.3501   15.1842 O.2       8 UNK        -0.5428 
     50 CA        -54.1286  -23.3883   12.8170 C.3       7 UNK         0.0264 
     51 CB        -55.0512  -22.1699   12.6462 C.3       7 UNK        -0.1988 
     52 N         -53.3481  -23.5634   11.5909 N.am      7 UNK        -0.4454 
     53 C         -52.7651  -24.7117   11.2198 C.2       7 UNK         0.5027 
     54 O         -52.8623  -25.7464   11.8794 O.2       7 UNK        -0.5083 
     55 CA        -51.9540  -24.7056    9.8976 C.3       6 UNK         0.0844 
     56 C56       -52.4345  -23.6126    8.8915 C.3       14 UNK        -0.0967 
     57 S57       -51.5111  -23.6193    7.3118 S.3       14 UNK        -0.2604 
     58 C58       -52.7346  -24.2530    6.1239 C.3       14 UNK         0.0134 
     59 N         -50.5053  -24.6345   10.1306 N.am      6 UNK        -0.4116 
     60 C         -49.8606  -23.6274   10.7370 C.2       5 UNK         0.5034 
     61 O         -50.4287  -22.7481   11.3887 O.2       5 UNK        -0.5045 
     62 CA        -48.3446  -23.5201   10.4872 C.3       5 UNK         0.0224 
     63 CB        -47.5998  -22.5976   11.4770 C.3       5 UNK        -0.1978 
     64 N         -47.6350  -24.7917   10.3338 N.am      5 UNK        -0.4737 
     65 C         -47.4344  -25.7399   11.2609 C.2       4 UNK         0.5027 
     66 O         -47.9874  -25.7442   12.3607 O.2       4 UNK        -0.5211 
     67 CA        -46.4061  -26.8436   10.9212 C.3       4 UNK         0.0297 
     68 CB        -46.8849  -28.2592   11.2845 C.3       4 UNK        -0.1993 
     69 N         -46.0107  -26.8310    9.5116 N.am      4 UNK        -0.4486 
     70 C         -44.9851  -26.1445    8.9911 C.2       3 UNK         0.4961 
     71 O         -44.1723  -25.5054    9.6585 O.2       3 UNK        -0.5105 
     72 CA        -44.8714  -26.1470    7.4553 C.3       3 UNK         0.0299 
     73 CB        -43.8792  -27.2258    6.9923 C.3       3 UNK        -0.1972 
     74 N         -46.1589  -26.3487    6.7779 N.am      3 UNK        -0.4305 
     75 C         -47.1798  -25.4766    6.7945 C.2       2 UNK         0.5006 
     76 O         -47.1412  -24.3910    7.3722 O.2       2 UNK        -0.5106 
     77 CA        -48.4732  -25.9173    6.0916 C.3       2 UNK         0.0296 
     78 CB        -48.3574  -25.7173    4.5711 C.3       2 UNK        -0.2002 
     79 N         -48.8067  -27.3132    6.3873 N.am      2 UNK        -0.4032 
     80 C         -49.2710  -27.7531    7.5670 C.2       1 UNK         0.5000 
     81 O         -49.5242  -27.0044    8.5157 O.2       1 UNK        -0.5238 
     82 H82       -52.4317  -29.9965   10.2938 H         1 UNK         0.0889 
     83 H83       -51.4805  -31.0193   11.3692 H         1 UNK         0.0889 
     84 H84       -52.3431  -31.7314   10.0051 H         1 UNK         0.0889 
     85 H85       -51.1959  -28.8713    8.7576 H         1 UNK         0.3028 
     86 H86       -48.4694  -29.5353    8.2554 H         1 UNK         0.0864 
     87 H87       -48.7977  -29.7567    5.6554 H         1 UNK         0.0720 
     88 H88       -49.0008  -31.1089    6.6887 H         1 UNK         0.0720 
     89 H89       -52.1887  -29.3127    4.0165 H         1 UNK         0.0814 
     90 H90       -50.6870  -28.5424    4.4524 H         1 UNK         0.0814 
     91 H91       -51.4400  -26.3001    4.8733 H         1 UNK         0.1469 
     92 H92       -54.5348  -25.5159    7.7278 H         1 UNK         0.1381 
     93 H93       -53.5334  -29.5536    6.7396 H         1 UNK         0.1206 
     94 H94       -55.4601  -29.0906    8.1540 H         1 UNK         0.0813 
     95 H95       -56.0540  -27.4470    8.2743 H         1 UNK         0.0813 
     96 H96       -56.8337  -27.9721   10.4807 H         1 UNK         0.0638 
     97 H97       -56.0595  -26.5557   11.1338 H         1 UNK         0.0638 
     98 H98       -56.8232  -28.0103   12.9258 H         1 UNK         0.0568 
     99 H99       -55.0247  -31.6070   12.6799 H         1 UNK         0.3450 
    100 H100      -54.0986  -30.1852   13.1049 H         1 UNK         0.3450 
    101 H101      -54.0256  -27.3473   12.7404 H         1 UNK         0.2987 
    102 H102      -53.5275  -26.3929   15.4479 H         1 UNK         0.0766 
    103 H103      -54.0147  -27.9497   17.3074 H         1 UNK         0.0798 
    104 H104      -52.2777  -27.8184   17.0939 H         1 UNK         0.0798 
    105 H105      -53.1315  -29.2423   16.5043 H         1 UNK         0.0798 
    106 H106      -51.6406  -26.7589   14.3971 H         1 UNK         0.3198 
    107 H107      -50.0553  -29.5774   12.8656 H         1 UNK         0.0843 
    108 H108      -50.5149  -26.7017   11.9948 H         1 UNK         0.0831 
    109 H109      -51.4357  -28.0085   11.2693 H         1 UNK         0.0831 
    110 H110      -49.6947  -27.9820   11.1262 H         1 UNK         0.0831 
    111 H111      -49.1234  -26.9905   13.7542 H         1 UNK         0.3133 
    112 H112      -47.7581  -28.2747   16.8614 H         1 UNK         0.0566 
    113 H113      -46.1407  -26.6171   16.1219 H         1 UNK         0.0814 
    114 H114      -47.0088  -26.3157   14.6263 H         1 UNK         0.0814 
    115 H115      -46.2020  -27.8592   14.8806 H         1 UNK         0.0814 
    116 H116      -49.6573  -26.2755   15.8391 H         1 UNK         0.3091 
    117 H117      -51.0932  -25.7982   17.9644 H         1 UNK         0.0702 
    118 H118      -51.0524  -23.9995   19.6673 H         1 UNK         0.0785 
    119 H119      -49.2913  -23.9285   19.5822 H         1 UNK         0.0785 
    120 H120      -50.0935  -25.3687   20.1946 H         1 UNK         0.0785 
    121 H121      -50.2566  -23.1393   17.4448 H         1 UNK         0.2998 
    122 H122      -51.4223  -22.1048   15.7515 H         1 UNK         0.0697 
    123 H123      -49.8045  -21.4021   13.9245 H         1 UNK         0.0825 
    124 H124      -49.2017  -23.0597   13.8759 H         1 UNK         0.0825 
    125 H125      -48.9817  -22.0849   15.3204 H         1 UNK         0.0825 
    126 H126      -51.5698  -22.9283   13.0048 H         1 UNK         0.3029 
    127 H127      -54.7562  -24.2718   12.9562 H         1 UNK         0.0897 
    128 H128      -54.4832  -21.2500   12.5012 H         1 UNK         0.0792 
    129 H129      -55.6794  -22.0290   13.5269 H         1 UNK         0.0792 
    130 H130      -55.7180  -22.2930   11.7926 H         1 UNK         0.0792 
    131 H131      -53.1879  -22.7363   11.0351 H         1 UNK         0.3086 
    132 H132      -52.1275  -25.6785    9.4350 H         1 UNK         0.0583 
    133 H133      -53.5019  -23.7117    8.6923 H         1 UNK         0.1020 
    134 H134      -52.3041  -22.6142    9.3117 H         1 UNK         0.1020 
    135 H135      -53.6748  -23.7104    6.2342 H         1 UNK         0.0694 
    136 H136      -52.3807  -24.0418    5.1137 H         1 UNK         0.0694 
    137 H137      -49.9608  -25.3396    9.6433 H         1 UNK         0.2989 
    138 H138      -48.2780  -23.0372    9.5108 H         1 UNK         0.1055 
    139 H139      -47.4858  -23.0563   12.4577 H         1 UNK         0.0806 
    140 H140      -48.1168  -21.6469   11.6126 H         1 UNK         0.0806 
    141 H141      -46.6001  -22.3648   11.1106 H         1 UNK         0.0806 
    142 H142      -47.1769  -24.9039    9.4369 H         1 UNK         0.3061 
    143 H143      -45.5324  -26.6315   11.5411 H         1 UNK         0.0734 
    144 H144      -47.6616  -28.6144   10.6093 H         1 UNK         0.0832 
    145 H145      -46.0609  -28.9709   11.2325 H         1 UNK         0.0832 
    146 H146      -47.2737  -28.3027   12.3009 H         1 UNK         0.0832 
    147 H147      -46.6296  -27.3051    8.8720 H         1 UNK         0.3156 
    148 H148      -44.4824  -25.1722    7.1531 H         1 UNK         0.0589 
    149 H149      -44.2202  -28.2291    7.2509 H         1 UNK         0.0808 
    150 H150      -42.9036  -27.0838    7.4597 H         1 UNK         0.0808 
    151 H151      -43.7263  -27.1890    5.9135 H         1 UNK         0.0808 
    152 H152      -46.2670  -27.2092    6.2614 H         1 UNK         0.3098 
    153 H153      -49.2849  -25.2872    6.4581 H         1 UNK         0.0720 
    154 H154      -49.2829  -25.9780    4.0593 H         1 UNK         0.0791 
    155 H155      -47.5573  -26.3195    4.1390 H         1 UNK         0.0791 
    156 H156      -48.1432  -24.6742    4.3338 H         1 UNK         0.0791 
    157 H157      -48.6244  -27.9862    5.6580 H         1 UNK         0.3028 
@<TRIPOS>BOND
     1    1    2 1    
     2    1   82 1    
     3    1   83 1    
     4    1   84 1    
     5    2    3 2    
     6    2    4 am   BACKBONE|DICT|INTERRES
     7    4    5 1    
     8    4   85 1    
     9    5    6 1    
    10    5   80 1    
    11    5   86 1    
    12    6    7 1    
    13    6   87 1    
    14    6   88 1    
    15    7    8 1    
    16    8    9 1    
    17    8   89 1    
    18    8   90 1    
    19    9   10 ar   
    20    9   14 ar   
    21   10   11 ar   
    22   10   91 1    
    23   11   12 ar   
    24   11   58 1    
    25   12   13 ar   
    26   12   92 1    
    27   13   14 ar   
    28   13   15 1    
    29   14   93 1    
    30   15   16 1    
    31   15   94 1    
    32   15   95 1    
    33   16   17 1    
    34   17   18 1    
    35   17   96 1    
    36   17   97 1    
    37   18   19 1    
    38   18   22 1    
    39   18   98 1    
    40   19   20 am   BACKBONE|DICT|INTERRES
    41   19   21 2    
    42   20   99 1    
    43   20  100 1    
    44   22   23 am   BACKBONE|DICT|INTERRES
    45   22  101 1    
    46   23   24 2    
    47   23   25 1    
    48   25   26 1    
    49   25   27 1    
    50   25  102 1    
    51   26  103 1    
    52   26  104 1    
    53   26  105 1    
    54   27   28 am   BACKBONE|DICT|INTERRES
    55   27  106 1    
    56   28   29 2    
    57   28   30 1    
    58   30   31 1    
    59   30   32 1    
    60   30  107 1    
    61   31  108 1    
    62   31  109 1    
    63   31  110 1    
    64   32   33 am   BACKBONE|DICT|INTERRES
    65   32  111 1    
    66   33   34 2    
    67   33   35 1    
    68   35   36 1    
    69   35   37 1    
    70   35  112 1    
    71   36  113 1    
    72   36  114 1    
    73   36  115 1    
    74   37   38 am   BACKBONE|DICT|INTERRES
    75   37  116 1    
    76   38   39 2    
    77   38   40 1    
    78   40   41 1    
    79   40   42 1    
    80   40  117 1    
    81   41  118 1    
    82   41  119 1    
    83   41  120 1    
    84   42   43 am   BACKBONE|DICT|INTERRES
    85   42  121 1    
    86   43   44 2    
    87   43   45 1    
    88   45   46 1    
    89   45   47 1    
    90   45  122 1    
    91   46  123 1    
    92   46  124 1    
    93   46  125 1    
    94   47   48 am   BACKBONE|DICT|INTERRES
    95   47  126 1    
    96   48   49 2    
    97   48   50 1    
    98   50   51 1    
    99   50   52 1    
   100   50  127 1    
   101   51  128 1    
   102   51  129 1    
   103   51  130 1    
   104   52   53 am   BACKBONE|DICT|INTERRES
   105   52  131 1    
   106   53   54 2    
   107   53   55 1    
   108   55   56 1    
   109   55   59 1    
   110   55  132 1    
   111   56   57 1    
   112   56  133 1    
   113   56  134 1    
   114   57   58 1    
   115   58  135 1    
   116   58  136 1    
   117   59   60 am   BACKBONE|DICT|INTERRES
   118   59  137 1    
   119   60   61 2    
   120   60   62 1    
   121   62   63 1    
   122   62   64 1    
   123   62  138 1    
   124   63  139 1    
   125   63  140 1    
   126   63  141 1    
   127   64   65 am   BACKBONE|DICT|INTERRES
   128   64  142 1    
   129   65   66 2    
   130   65   67 1    
   131   67   68 1    
   132   67   69 1    
   133   67  143 1    
   134   68  144 1    
   135   68  145 1    
   136   68  146 1    
   137   69   70 am   BACKBONE|DICT|INTERRES
   138   69  147 1    
   139   70   71 2    
   140   70   72 1    
   141   72   73 1    
   142   72   74 1    
   143   72  148 1    
   144   73  149 1    
   145   73  150 1    
   146   73  151 1    
   147   74   75 am   BACKBONE|DICT|INTERRES
   148   74  152 1    
   149   75   76 2    
   150   75   77 1    
   151   77   78 1    
   152   77   79 1    
   153   77  153 1    
   154   78  154 1    
   155   78  155 1    
   156   78  156 1    
   157   79   80 am   BACKBONE|DICT|INTERRES
   158   79  157 1    
   159   80   81 2    
@<TRIPOS>SUBSTRUCTURE
     1 UNK         1 GROUP             0       ****    0 ROOT    
