@<TRIPOS>MOLECULE
3R207
157   159    1
SMALL
USER_CHARGES


@<TRIPOS>ATOM
      1 CA        -48.7663  -22.8209    5.6853 C.3       0 UNK        -0.1975 
      2 C         -49.0229  -24.1845    5.0607 C.2       0 UNK         0.4852 
      3 O         -48.9438  -24.3139    3.8390 O.2       0 UNK        -0.5216 
      4 N         -49.3331  -25.1811    5.8994 N.am      1 UNK        -0.4461 
      5 CA        -49.5490  -26.5985    5.5966 C.3       1 UNK         0.0864 
      6 C6        -50.4773  -26.8669    4.3820 C.3       14 UNK        -0.0898 
      7 S7        -51.4467  -28.3968    4.5904 S.3       14 UNK        -0.2598 
      8 C8        -53.1001  -27.7309    4.9622 C.3       14 UNK         0.0286 
      9 C9        -53.1991  -27.1831    6.3800 C.ar      14 UNK        -0.0844 
     10 C10       -52.9510  -25.8319    6.6417 C.ar      14 UNK        -0.0881 
     11 C11       -53.0960  -25.3183    7.9344 C.ar      14 UNK        -0.0643 
     12 C12       -53.5008  -26.1660    8.9705 C.ar      14 UNK        -0.0930 
     13 C13       -53.7486  -27.5195    8.7211 C.ar      14 UNK        -0.0827 
     14 C14       -53.5867  -28.0233    7.4271 C.ar      14 UNK        -0.1249 
     15 C15       -54.2367  -28.4319    9.8346 C.3       14 UNK         0.0141 
     16 S16       -52.8935  -28.8950   10.9687 S.3       14 UNK        -0.2313 
     17 C17       -53.5761  -30.4175   11.7157 C.3       14 UNK        -0.0915 
     18 CA        -54.9321  -30.2281   12.4524 C.3       13 UNK         0.0968 
     19 C         -55.5061  -31.5868   12.9549 C.2       13 UNK         0.5732 
     20 N         -55.8497  -31.7522   14.2276 N.am      13 UNK        -0.7310 
     21 O         -55.6564  -32.5152   12.1642 O.2       13 UNK        -0.5035 
     22 N         -54.8409  -29.1939   13.4906 N.am      13 UNK        -0.4233 
     23 C         -55.8554  -28.4285   13.9081 C.2       13 UNK         0.4989 
     24 O         -56.9795  -28.4417   13.4037 O.2       13 UNK        -0.4996 
     25 CA        -55.5470  -27.4982   15.0982 C.3       12 UNK         0.0216 
     26 CB        -56.8151  -26.9625   15.7942 C.3       12 UNK        -0.1964 
     27 N         -54.6272  -28.0889   16.0823 N.am      12 UNK        -0.4276 
     28 C         -54.7953  -29.2381   16.7540 C.2       12 UNK         0.5020 
     29 O         -55.7689  -29.9779   16.6045 O.2       12 UNK        -0.5489 
     30 CA        -53.6784  -29.6843   17.7144 C.3       11 UNK         0.0294 
     31 CB        -52.8778  -30.8388   17.0874 C.3       11 UNK        -0.2019 
     32 N         -52.7448  -28.6310   18.1244 N.am      11 UNK        -0.4493 
     33 C         -53.0359  -27.5948   18.9228 C.2       11 UNK         0.4932 
     34 O         -54.1666  -27.3504   19.3444 O.2       11 UNK        -0.5029 
     35 CA        -51.8672  -26.6939   19.3502 C.3       10 UNK         0.0280 
     36 CB        -50.4729  -27.3287   19.1569 C.3       10 UNK        -0.1976 
     37 N         -51.9268  -25.4373   18.6103 N.am      10 UNK        -0.4242 
     38 C         -51.7432  -24.2198   19.1398 C.2       10 UNK         0.5072 
     39 O         -51.5659  -24.0231   20.3436 O.2       10 UNK        -0.5224 
     40 CA        -51.7097  -23.0063   18.1869 C.3       9 UNK         0.0343 
     41 CB        -50.3094  -22.3686   18.1775 C.3       9 UNK        -0.2003 
     42 N         -52.0813  -23.3272   16.8079 N.am      9 UNK        -0.4272 
     43 C         -53.3377  -23.4568   16.3634 C.2       9 UNK         0.4988 
     44 O         -54.3345  -23.2602   17.0585 O.2       9 UNK        -0.5108 
     45 CA        -53.5157  -23.9001   14.8990 C.3       8 UNK         0.0248 
     46 CB        -53.6992  -22.6760   13.9871 C.3       8 UNK        -0.2001 
     47 N         -52.4319  -24.7367   14.3633 N.am      8 UNK        -0.4140 
     48 C         -51.9894  -25.8945   14.8755 C.2       8 UNK         0.5028 
     49 O         -52.4214  -26.3725   15.9249 O.2       8 UNK        -0.5428 
     50 CA        -50.8973  -26.6595   14.1020 C.3       7 UNK         0.0264 
     51 CB        -51.1071  -28.1819   14.1913 C.3       7 UNK        -0.1988 
     52 N         -50.7930  -26.2655   12.6903 N.am      7 UNK        -0.4454 
     53 C         -50.0608  -25.2339   12.2516 C.2       7 UNK         0.5027 
     54 O         -49.4398  -24.4758   13.0011 O.2       7 UNK        -0.5083 
     55 CA        -50.0444  -24.9678   10.7395 C.3       6 UNK         0.0844 
     56 C56       -51.0455  -23.8402   10.3800 C.3       14 UNK        -0.0967 
     57 S57       -51.1168  -23.4854    8.5903 S.3       14 UNK        -0.2604 
     58 C58       -52.8571  -23.8379    8.1918 C.3       14 UNK         0.0134 
     59 N         -48.6645  -24.6151   10.4128 N.am      6 UNK        -0.4116 
     60 C         -47.9506  -25.1276    9.4089 C.2       5 UNK         0.5034 
     61 O         -48.4063  -25.9066    8.5696 O.2       5 UNK        -0.5045 
     62 CA        -46.4741  -24.7131    9.3548 C.3       5 UNK         0.0224 
     63 CB        -45.6500  -25.5348   10.3605 C.3       5 UNK        -0.1978 
     64 N         -45.9391  -24.9474    8.0146 N.am      5 UNK        -0.4737 
     65 C         -45.6157  -23.9904    7.1356 C.2       4 UNK         0.5027 
     66 O         -45.6986  -22.7874    7.3869 O.2       4 UNK        -0.5211 
     67 CA        -45.1472  -24.4352    5.7336 C.3       4 UNK         0.0297 
     68 CB        -44.1299  -23.4589    5.1054 C.3       4 UNK        -0.1993 
     69 N         -44.6662  -25.8205    5.6814 N.am      4 UNK        -0.4486 
     70 C         -43.5847  -26.3375    6.2881 C.2       3 UNK         0.4961 
     71 O         -42.7694  -25.6670    6.9230 O.2       3 UNK        -0.5105 
     72 CA        -43.3879  -27.8670    6.1755 C.3       3 UNK         0.0299 
     73 CB        -42.6047  -28.4505    7.3714 C.3       3 UNK        -0.1972 
     74 N         -44.6386  -28.6119    5.9638 N.am      3 UNK        -0.4305 
     75 C         -45.7133  -28.6197    6.7662 C.2       2 UNK         0.5006 
     76 O         -45.7795  -28.0274    7.8445 O.2       2 UNK        -0.5106 
     77 CA        -46.9470  -29.3726    6.2421 C.3       2 UNK         0.0296 
     78 CB        -47.2572  -30.5930    7.1238 C.3       2 UNK        -0.2002 
     79 N         -48.1255  -28.5035    6.1816 N.am      2 UNK        -0.4032 
     80 C         -48.2109  -27.3564    5.4910 C.2       1 UNK         0.5000 
     81 O         -47.2980  -26.9170    4.7843 O.2       1 UNK        -0.5238 
     82 H82       -49.5928  -22.1460    5.4650 H         1 UNK         0.0889 
     83 H83       -47.8522  -22.3856    5.2822 H         1 UNK         0.0889 
     84 H84       -48.6573  -22.8838    6.7682 H         1 UNK         0.0889 
     85 H85       -49.3184  -24.9973    6.8971 H         1 UNK         0.3028 
     86 H86       -50.0574  -26.9613    6.4922 H         1 UNK         0.0864 
     87 H87       -49.9085  -26.9298    3.4520 H         1 UNK         0.0720 
     88 H88       -51.1674  -26.0358    4.2367 H         1 UNK         0.0720 
     89 H89       -53.8321  -28.5289    4.8279 H         1 UNK         0.0814 
     90 H90       -53.3643  -26.9621    4.2345 H         1 UNK         0.0814 
     91 H91       -52.6570  -25.1722    5.8373 H         1 UNK         0.1469 
     92 H92       -53.6368  -25.7735    9.9684 H         1 UNK         0.1381 
     93 H93       -53.7856  -29.0676    7.2275 H         1 UNK         0.1206 
     94 H94       -55.0273  -27.9324   10.3968 H         1 UNK         0.0813 
     95 H95       -54.6822  -29.3334    9.4108 H         1 UNK         0.0813 
     96 H96       -52.8277  -30.8155   12.4032 H         1 UNK         0.0638 
     97 H97       -53.6736  -31.1560   10.9176 H         1 UNK         0.0638 
     98 H98       -55.6581  -29.8891   11.7125 H         1 UNK         0.0568 
     99 H99       -56.2232  -32.6422   14.5153 H         1 UNK         0.3450 
    100 H100      -55.7770  -31.0011   14.9058 H         1 UNK         0.3450 
    101 H101      -53.9616  -29.1344   13.9785 H         1 UNK         0.2987 
    102 H102      -55.0235  -26.6471   14.6666 H         1 UNK         0.0766 
    103 H103      -57.4162  -27.7698   16.2140 H         1 UNK         0.0798 
    104 H104      -57.4470  -26.4145   15.0941 H         1 UNK         0.0798 
    105 H105      -56.5608  -26.2776   16.6034 H         1 UNK         0.0798 
    106 H106      -53.7725  -27.5569   16.2466 H         1 UNK         0.3198 
    107 H107      -54.1687  -30.0595   18.6153 H         1 UNK         0.0843 
    108 H108      -52.3493  -30.5242   16.1869 H         1 UNK         0.0831 
    109 H109      -53.5347  -31.6634   16.8058 H         1 UNK         0.0831 
    110 H110      -52.1438  -31.2402   17.7864 H         1 UNK         0.0831 
    111 H111      -51.7889  -28.7306   17.8161 H         1 UNK         0.3133 
    112 H112      -52.0062  -26.5108   20.4177 H         1 UNK         0.0566 
    113 H113      -50.2256  -27.4675   18.1035 H         1 UNK         0.0814 
    114 H114      -50.4054  -28.2985   19.6522 H         1 UNK         0.0814 
    115 H115      -49.6976  -26.6973   19.5914 H         1 UNK         0.0814 
    116 H116      -52.1253  -25.5290   17.6169 H         1 UNK         0.3091 
    117 H117      -52.4145  -22.2694   18.5783 H         1 UNK         0.0702 
    118 H118      -50.2840  -21.4751   17.5533 H         1 UNK         0.0785 
    119 H119      -49.5528  -23.0610   17.8060 H         1 UNK         0.0785 
    120 H120      -50.0089  -22.0665   19.1819 H         1 UNK         0.0785 
    121 H121      -51.3249  -23.5061   16.1634 H         1 UNK         0.2998 
    122 H122      -54.4341  -24.4856   14.8582 H         1 UNK         0.0697 
    123 H123      -52.7990  -22.0610   13.9497 H         1 UNK         0.0825 
    124 H124      -54.5120  -22.0413   14.3436 H         1 UNK         0.0825 
    125 H125      -53.9480  -22.9719   12.9677 H         1 UNK         0.0825 
    126 H126      -51.9901  -24.4080   13.5184 H         1 UNK         0.3029 
    127 H127      -49.9527  -26.4342   14.6023 H         1 UNK         0.0897 
    128 H128      -52.0779  -28.4777   13.7985 H         1 UNK         0.0792 
    129 H129      -51.0540  -28.5257   15.2249 H         1 UNK         0.0792 
    130 H130      -50.3410  -28.7230   13.6357 H         1 UNK         0.0792 
    131 H131      -51.2951  -26.8372   12.0236 H         1 UNK         0.3086 
    132 H132      -50.3370  -25.8859   10.2244 H         1 UNK         0.0583 
    133 H133      -52.0450  -24.0923   10.7369 H         1 UNK         0.1020 
    134 H134      -50.7752  -22.9124   10.8888 H         1 UNK         0.1020 
    135 H135      -53.5086  -23.4732    8.9873 H         1 UNK         0.0694 
    136 H136      -53.1275  -23.2664    7.3025 H         1 UNK         0.0694 
    137 H137      -48.2122  -24.0309   11.1035 H         1 UNK         0.2989 
    138 H138      -46.4011  -23.6558    9.6193 H         1 UNK         0.1055 
    139 H139      -45.7321  -26.6059   10.1702 H         1 UNK         0.0806 
    140 H140      -45.9843  -25.3588   11.3836 H         1 UNK         0.0806 
    141 H141      -44.5935  -25.2695   10.3152 H         1 UNK         0.0806 
    142 H142      -45.8974  -25.9213    7.7305 H         1 UNK         0.3061 
    143 H143      -46.0382  -24.4159    5.1056 H         1 UNK         0.0734 
    144 H144      -43.2378  -23.3484    5.7223 H         1 UNK         0.0832 
    145 H145      -43.8167  -23.7927    4.1163 H         1 UNK         0.0832 
    146 H146      -44.5644  -22.4656    4.9871 H         1 UNK         0.0832 
    147 H147      -45.3046  -26.4617    5.2195 H         1 UNK         0.3156 
    148 H148      -42.7859  -28.0253    5.2796 H         1 UNK         0.0589 
    149 H149      -42.4691  -29.5272    7.2707 H         1 UNK         0.0808 
    150 H150      -41.6110  -28.0067    7.4442 H         1 UNK         0.0808 
    151 H151      -43.1132  -28.2630    8.3178 H         1 UNK         0.0808 
    152 H152      -44.6980  -29.1139    5.0878 H         1 UNK         0.3098 
    153 H153      -46.7480  -29.7242    5.2277 H         1 UNK         0.0720 
    154 H154      -47.4989  -30.2999    8.1466 H         1 UNK         0.0791 
    155 H155      -46.4008  -31.2669    7.1721 H         1 UNK         0.0791 
    156 H156      -48.0974  -31.1656    6.7303 H         1 UNK         0.0791 
    157 H157      -48.9122  -28.7797    6.7505 H         1 UNK         0.3028 
@<TRIPOS>BOND
     1    1    2 1    
     2    1   82 1    
     3    1   83 1    
     4    1   84 1    
     5    2    3 2    
     6    2    4 am   BACKBONE|DICT|INTERRES
     7    4    5 1    
     8    4   85 1    
     9    5    6 1    
    10    5   80 1    
    11    5   86 1    
    12    6    7 1    
    13    6   87 1    
    14    6   88 1    
    15    7    8 1    
    16    8    9 1    
    17    8   89 1    
    18    8   90 1    
    19    9   10 ar   
    20    9   14 ar   
    21   10   11 ar   
    22   10   91 1    
    23   11   12 ar   
    24   11   58 1    
    25   12   13 ar   
    26   12   92 1    
    27   13   14 ar   
    28   13   15 1    
    29   14   93 1    
    30   15   16 1    
    31   15   94 1    
    32   15   95 1    
    33   16   17 1    
    34   17   18 1    
    35   17   96 1    
    36   17   97 1    
    37   18   19 1    
    38   18   22 1    
    39   18   98 1    
    40   19   20 am   BACKBONE|DICT|INTERRES
    41   19   21 2    
    42   20   99 1    
    43   20  100 1    
    44   22   23 am   BACKBONE|DICT|INTERRES
    45   22  101 1    
    46   23   24 2    
    47   23   25 1    
    48   25   26 1    
    49   25   27 1    
    50   25  102 1    
    51   26  103 1    
    52   26  104 1    
    53   26  105 1    
    54   27   28 am   BACKBONE|DICT|INTERRES
    55   27  106 1    
    56   28   29 2    
    57   28   30 1    
    58   30   31 1    
    59   30   32 1    
    60   30  107 1    
    61   31  108 1    
    62   31  109 1    
    63   31  110 1    
    64   32   33 am   BACKBONE|DICT|INTERRES
    65   32  111 1    
    66   33   34 2    
    67   33   35 1    
    68   35   36 1    
    69   35   37 1    
    70   35  112 1    
    71   36  113 1    
    72   36  114 1    
    73   36  115 1    
    74   37   38 am   BACKBONE|DICT|INTERRES
    75   37  116 1    
    76   38   39 2    
    77   38   40 1    
    78   40   41 1    
    79   40   42 1    
    80   40  117 1    
    81   41  118 1    
    82   41  119 1    
    83   41  120 1    
    84   42   43 am   BACKBONE|DICT|INTERRES
    85   42  121 1    
    86   43   44 2    
    87   43   45 1    
    88   45   46 1    
    89   45   47 1    
    90   45  122 1    
    91   46  123 1    
    92   46  124 1    
    93   46  125 1    
    94   47   48 am   BACKBONE|DICT|INTERRES
    95   47  126 1    
    96   48   49 2    
    97   48   50 1    
    98   50   51 1    
    99   50   52 1    
   100   50  127 1    
   101   51  128 1    
   102   51  129 1    
   103   51  130 1    
   104   52   53 am   BACKBONE|DICT|INTERRES
   105   52  131 1    
   106   53   54 2    
   107   53   55 1    
   108   55   56 1    
   109   55   59 1    
   110   55  132 1    
   111   56   57 1    
   112   56  133 1    
   113   56  134 1    
   114   57   58 1    
   115   58  135 1    
   116   58  136 1    
   117   59   60 am   BACKBONE|DICT|INTERRES
   118   59  137 1    
   119   60   61 2    
   120   60   62 1    
   121   62   63 1    
   122   62   64 1    
   123   62  138 1    
   124   63  139 1    
   125   63  140 1    
   126   63  141 1    
   127   64   65 am   BACKBONE|DICT|INTERRES
   128   64  142 1    
   129   65   66 2    
   130   65   67 1    
   131   67   68 1    
   132   67   69 1    
   133   67  143 1    
   134   68  144 1    
   135   68  145 1    
   136   68  146 1    
   137   69   70 am   BACKBONE|DICT|INTERRES
   138   69  147 1    
   139   70   71 2    
   140   70   72 1    
   141   72   73 1    
   142   72   74 1    
   143   72  148 1    
   144   73  149 1    
   145   73  150 1    
   146   73  151 1    
   147   74   75 am   BACKBONE|DICT|INTERRES
   148   74  152 1    
   149   75   76 2    
   150   75   77 1    
   151   77   78 1    
   152   77   79 1    
   153   77  153 1    
   154   78  154 1    
   155   78  155 1    
   156   78  156 1    
   157   79   80 am   BACKBONE|DICT|INTERRES
   158   79  157 1    
   159   80   81 2    
@<TRIPOS>SUBSTRUCTURE
     1 UNK         1 GROUP             0       ****    0 ROOT    
