@<TRIPOS>MOLECULE
3R207
157   159    1
SMALL
USER_CHARGES


@<TRIPOS>ATOM
      1 CA        -49.4089  -23.7811    4.0601 C.3       0 UNK        -0.1975 
      2 C         -50.0148  -24.9025    4.8891 C.2       0 UNK         0.4852 
      3 O         -49.8467  -24.9207    6.1086 O.2       0 UNK        -0.5216 
      4 N         -50.7183  -25.8405    4.2417 N.am      1 UNK        -0.4461 
      5 CA        -51.3450  -27.0036    4.8771 C.3       1 UNK         0.0864 
      6 C6        -52.2790  -27.7661    3.9047 C.3       14 UNK        -0.0898 
      7 S7        -53.6992  -26.7314    3.4043 S.3       14 UNK        -0.2598 
      8 C8        -55.1161  -27.5719    4.1963 C.3       14 UNK         0.0286 
      9 C9        -54.9156  -27.8517    5.6831 C.ar      14 UNK        -0.0844 
     10 C10       -54.4926  -26.8416    6.5555 C.ar      14 UNK        -0.0881 
     11 C11       -54.2572  -27.1236    7.9040 C.ar      14 UNK        -0.0643 
     12 C12       -54.5063  -28.4069    8.3898 C.ar      14 UNK        -0.0930 
     13 C13       -54.9509  -29.4194    7.5379 C.ar      14 UNK        -0.0827 
     14 C14       -55.1475  -29.1382    6.1833 C.ar      14 UNK        -0.1249 
     15 C15       -55.2069  -30.8116    8.0908 C.3       14 UNK         0.0141 
     16 S16       -53.6414  -31.6910    8.3960 S.3       14 UNK        -0.2313 
     17 C17       -54.0781  -32.6983    9.8580 C.3       14 UNK        -0.0915 
     18 CA        -53.5496  -32.1268   11.2045 C.3       13 UNK         0.0968 
     19 C         -52.0274  -32.3724   11.3989 C.2       13 UNK         0.5732 
     20 N         -51.6344  -33.6019   11.6994 N.am      13 UNK        -0.7310 
     21 O         -51.2018  -31.4741   11.2611 O.2       13 UNK        -0.5035 
     22 N         -53.9309  -30.7184   11.3750 N.am      13 UNK        -0.4233 
     23 C         -53.9788  -30.0673   12.5409 C.2       13 UNK         0.4989 
     24 O         -53.7798  -30.5987   13.6377 O.2       13 UNK        -0.4996 
     25 CA        -54.3535  -28.5791   12.4724 C.3       12 UNK         0.0216 
     26 CB        -55.8251  -28.3920   12.0459 C.3       12 UNK        -0.1964 
     27 N         -54.1327  -27.9980   13.7917 N.am      12 UNK        -0.4276 
     28 C         -54.0701  -26.7006   14.1048 C.2       12 UNK         0.5020 
     29 O         -54.2421  -25.7904   13.2916 O.2       12 UNK        -0.5489 
     30 CA        -53.7984  -26.3579   15.5790 C.3       11 UNK         0.0294 
     31 CB        -53.1077  -27.4898   16.3744 C.3       11 UNK        -0.2019 
     32 N         -52.9937  -25.1417   15.6683 N.am      11 UNK        -0.4493 
     33 C         -53.0310  -24.2695   16.6812 C.2       11 UNK         0.4932 
     34 O         -53.8419  -24.3259   17.6080 O.2       11 UNK        -0.5029 
     35 CA        -51.9272  -23.1946   16.6762 C.3       10 UNK         0.0280 
     36 CB        -52.0179  -22.2171   17.8672 C.3       10 UNK        -0.1976 
     37 N         -50.5939  -23.8066   16.5998 N.am      10 UNK        -0.4242 
     38 C         -50.0473  -24.6885   17.4551 C.2       10 UNK         0.5072 
     39 O         -50.5724  -25.0487   18.5097 O.2       10 UNK        -0.5224 
     40 CA        -48.6867  -25.2990   17.0700 C.3       9 UNK         0.0343 
     41 CB        -48.8840  -26.7141   16.5062 C.3       9 UNK        -0.2003 
     42 N         -47.9414  -24.4998   16.0967 N.am      9 UNK        -0.4272 
     43 C         -47.3365  -23.3372   16.3720 C.2       9 UNK         0.4988 
     44 O         -47.2812  -22.8376   17.4966 O.2       9 UNK        -0.5108 
     45 CA        -46.7143  -22.5929   15.1817 C.3       8 UNK         0.0248 
     46 CB        -45.3017  -23.1196   14.8775 C.3       8 UNK        -0.2001 
     47 N         -47.5483  -22.6617   13.9766 N.am      8 UNK        -0.4140 
     48 C         -48.7147  -22.0188   13.8325 C.2       8 UNK         0.5028 
     49 O         -49.2486  -21.3569   14.7230 O.2       8 UNK        -0.5428 
     50 CA        -49.3840  -22.0991   12.4548 C.3       7 UNK         0.0264 
     51 CB        -48.5274  -21.4040   11.3817 C.3       7 UNK        -0.1988 
     52 N         -49.6918  -23.4596   12.0177 N.am      7 UNK        -0.4454 
     53 C         -50.7007  -24.2077   12.4850 C.2       7 UNK         0.5027 
     54 O         -51.3369  -23.9508   13.5063 O.2       7 UNK        -0.5083 
     55 CA        -51.0728  -25.4367   11.6381 C.3       6 UNK         0.0844 
     56 C56       -51.4384  -25.0150   10.1894 C.3       14 UNK        -0.0967 
     57 S57       -51.9269  -26.4195    9.1453 S.3       14 UNK        -0.2604 
     58 C58       -53.6837  -26.0699    8.8357 C.3       14 UNK         0.0134 
     59 N         -49.9741  -26.3958   11.7118 N.am      6 UNK        -0.4116 
     60 C         -49.8582  -27.3384   12.6576 C.2       5 UNK         0.5034 
     61 O         -50.7528  -27.6254   13.4516 O.2       5 UNK        -0.5045 
     62 CA        -48.5035  -28.0634   12.7780 C.3       5 UNK         0.0224 
     63 CB        -48.5877  -29.5050   12.2617 C.3       5 UNK        -0.1978 
     64 N         -47.4057  -27.3642   12.1043 N.am      5 UNK        -0.4737 
     65 C         -46.8681  -26.2235   12.5578 C.2       4 UNK         0.5027 
     66 O         -47.2235  -25.6718   13.5981 O.2       4 UNK        -0.5211 
     67 CA        -45.8018  -25.5475   11.6801 C.3       4 UNK         0.0297 
     68 CB        -44.3995  -26.0465   12.0599 C.3       4 UNK        -0.1993 
     69 N         -46.0181  -25.7345   10.2425 N.am      4 UNK        -0.4486 
     70 C         -47.1092  -25.3445    9.5691 C.2       3 UNK         0.4961 
     71 O         -48.0646  -24.7731   10.0966 O.2       3 UNK        -0.5105 
     72 CA        -47.1621  -25.6498    8.0635 C.3       3 UNK         0.0299 
     73 CB        -45.7992  -26.0338    7.4432 C.3       3 UNK        -0.1972 
     74 N         -48.1777  -26.6577    7.7428 N.am      3 UNK        -0.4305 
     75 C         -48.2416  -27.9266    8.1834 C.2       2 UNK         0.5006 
     76 O         -47.4612  -28.3930    9.0160 O.2       2 UNK        -0.5106 
     77 CA        -49.3378  -28.8437    7.5959 C.3       2 UNK         0.0296 
     78 CB        -50.0732  -29.6368    8.6885 C.3       2 UNK        -0.2002 
     79 N         -50.3257  -28.1107    6.8039 N.am      2 UNK        -0.4032 
     80 C         -50.2722  -27.9303    5.4787 C.2       1 UNK         0.5000 
     81 O         -49.4126  -28.4249    4.7447 O.2       1 UNK        -0.5238 
     82 H82       -49.6417  -23.8863    3.0008 H         1 UNK         0.0889 
     83 H83       -48.3252  -23.7769    4.1720 H         1 UNK         0.0889 
     84 H84       -49.7906  -22.8186    4.3981 H         1 UNK         0.0889 
     85 H85       -50.8209  -25.7853    3.2388 H         1 UNK         0.3028 
     86 H86       -51.9502  -26.6224    5.7002 H         1 UNK         0.0864 
     87 H87       -51.7363  -28.0692    3.0075 H         1 UNK         0.0720 
     88 H88       -52.6453  -28.6884    4.3595 H         1 UNK         0.0720 
     89 H89       -55.3085  -28.4989    3.6539 H         1 UNK         0.0814 
     90 H90       -56.0064  -26.9544    4.0714 H         1 UNK         0.0814 
     91 H91       -54.3043  -25.8476    6.1731 H         1 UNK         0.1469 
     92 H92       -54.3185  -28.6182    9.4299 H         1 UNK         0.1381 
     93 H93       -55.4776  -29.9244    5.5178 H         1 UNK         0.1206 
     94 H94       -55.7837  -30.7230    9.0125 H         1 UNK         0.0813 
     95 H95       -55.8185  -31.3988    7.4040 H         1 UNK         0.0813 
     96 H96       -53.7071  -33.7119    9.6960 H         1 UNK         0.0638 
     97 H97       -55.1630  -32.8008    9.9086 H         1 UNK         0.0638 
     98 H98       -54.0474  -32.6837   12.0008 H         1 UNK         0.0568 
     99 H99       -52.2981  -34.3514   11.8099 H         1 UNK         0.3450 
    100 H100      -50.6502  -33.7811   11.8199 H         1 UNK         0.3450 
    101 H101      -54.0524  -30.2099   10.5149 H         1 UNK         0.2987 
    102 H102      -53.6877  -28.0872   11.7598 H         1 UNK         0.0766 
    103 H103      -56.0763  -27.3373   11.9350 H         1 UNK         0.0798 
    104 H104      -56.5100  -28.8219   12.7776 H         1 UNK         0.0798 
    105 H105      -56.0345  -28.8696   11.0888 H         1 UNK         0.0798 
    106 H106      -53.9324  -28.6932   14.5016 H         1 UNK         0.3198 
    107 H107      -54.7760  -26.1679   16.0270 H         1 UNK         0.0843 
    108 H108      -53.7375  -28.3773   16.4438 H         1 UNK         0.0831 
    109 H109      -52.8931  -27.1804   17.3977 H         1 UNK         0.0831 
    110 H110      -52.1615  -27.7823   15.9161 H         1 UNK         0.0831 
    111 H111      -52.3742  -24.9552   14.8831 H         1 UNK         0.3133 
    112 H112      -52.0570  -22.6120   15.7630 H         1 UNK         0.0566 
    113 H113      -51.2369  -21.4585   17.8144 H         1 UNK         0.0814 
    114 H114      -52.9764  -21.6970   17.8709 H         1 UNK         0.0814 
    115 H115      -51.9231  -22.7296   18.8250 H         1 UNK         0.0814 
    116 H116      -50.0755  -23.5896   15.7594 H         1 UNK         0.3091 
    117 H117      -48.0881  -25.3740   17.9804 H         1 UNK         0.0702 
    118 H118      -47.9315  -27.1780   16.2497 H         1 UNK         0.0785 
    119 H119      -49.5053  -26.6991   15.6114 H         1 UNK         0.0785 
    120 H120      -49.3774  -27.3604   17.2333 H         1 UNK         0.0785 
    121 H121      -47.8596  -24.8736   15.1525 H         1 UNK         0.2998 
    122 H122      -46.6238  -21.5412   15.4627 H         1 UNK         0.0697 
    123 H123      -45.3057  -24.1800   14.6271 H         1 UNK         0.0825 
    124 H124      -44.6493  -22.9966   15.7431 H         1 UNK         0.0825 
    125 H125      -44.8437  -22.5791   14.0489 H         1 UNK         0.0825 
    126 H126      -47.2176  -23.2450   13.2216 H         1 UNK         0.3029 
    127 H127      -50.3282  -21.5532   12.5254 H         1 UNK         0.0897 
    128 H128      -49.0650  -21.3304   10.4360 H         1 UNK         0.0792 
    129 H129      -48.2669  -20.3884   11.6841 H         1 UNK         0.0792 
    130 H130      -47.5957  -21.9390   11.1918 H         1 UNK         0.0792 
    131 H131      -49.1621  -23.8109   11.2217 H         1 UNK         0.3086 
    132 H132      -51.9656  -25.8835   12.0749 H         1 UNK         0.0583 
    133 H133      -52.2481  -24.2828   10.2057 H         1 UNK         0.1020 
    134 H134      -50.6048  -24.5216    9.6885 H         1 UNK         0.1020 
    135 H135      -54.2299  -26.0671    9.7807 H         1 UNK         0.0694 
    136 H136      -53.7895  -25.0740    8.4028 H         1 UNK         0.0694 
    137 H137      -49.1770  -26.1984   11.1200 H         1 UNK         0.2989 
    138 H138      -48.2689  -28.1097   13.8436 H         1 UNK         0.1055 
    139 H139      -49.3949  -30.0500   12.7532 H         1 UNK         0.0806 
    140 H140      -47.6639  -30.0510   12.4530 H         1 UNK         0.0806 
    141 H141      -48.7786  -29.5349   11.1917 H         1 UNK         0.0806 
    142 H142      -47.0999  -27.7347   11.2115 H         1 UNK         0.3061 
    143 H143      -45.8469  -24.4752   11.8792 H         1 UNK         0.0734 
    144 H144      -44.2095  -25.9062   13.1250 H         1 UNK         0.0832 
    145 H145      -44.2766  -27.1091   11.8461 H         1 UNK         0.0832 
    146 H146      -43.6236  -25.5025   11.5209 H         1 UNK         0.0832 
    147 H147      -45.2962  -26.2216    9.7312 H         1 UNK         0.3156 
    148 H148      -47.4884  -24.7259    7.5841 H         1 UNK         0.0589 
    149 H149      -45.4190  -26.9827    7.8231 H         1 UNK         0.0808 
    150 H150      -45.8812  -26.1276    6.3603 H         1 UNK         0.0808 
    151 H151      -45.0463  -25.2687    7.6378 H         1 UNK         0.0808 
    152 H152      -48.9061  -26.3220    7.1187 H         1 UNK         0.3098 
    153 H153      -48.8301  -29.5670    6.9549 H         1 UNK         0.0720 
    154 H154      -49.4049  -30.3586    9.1578 H         1 UNK         0.0791 
    155 H155      -50.9083  -30.2040    8.2778 H         1 UNK         0.0791 
    156 H156      -50.4651  -28.9897    9.4737 H         1 UNK         0.0791 
    157 H157      -51.0457  -27.6349    7.3350 H         1 UNK         0.3028 
@<TRIPOS>BOND
     1    1    2 1    
     2    1   82 1    
     3    1   83 1    
     4    1   84 1    
     5    2    3 2    
     6    2    4 am   BACKBONE|DICT|INTERRES
     7    4    5 1    
     8    4   85 1    
     9    5    6 1    
    10    5   80 1    
    11    5   86 1    
    12    6    7 1    
    13    6   87 1    
    14    6   88 1    
    15    7    8 1    
    16    8    9 1    
    17    8   89 1    
    18    8   90 1    
    19    9   10 ar   
    20    9   14 ar   
    21   10   11 ar   
    22   10   91 1    
    23   11   12 ar   
    24   11   58 1    
    25   12   13 ar   
    26   12   92 1    
    27   13   14 ar   
    28   13   15 1    
    29   14   93 1    
    30   15   16 1    
    31   15   94 1    
    32   15   95 1    
    33   16   17 1    
    34   17   18 1    
    35   17   96 1    
    36   17   97 1    
    37   18   19 1    
    38   18   22 1    
    39   18   98 1    
    40   19   20 am   BACKBONE|DICT|INTERRES
    41   19   21 2    
    42   20   99 1    
    43   20  100 1    
    44   22   23 am   BACKBONE|DICT|INTERRES
    45   22  101 1    
    46   23   24 2    
    47   23   25 1    
    48   25   26 1    
    49   25   27 1    
    50   25  102 1    
    51   26  103 1    
    52   26  104 1    
    53   26  105 1    
    54   27   28 am   BACKBONE|DICT|INTERRES
    55   27  106 1    
    56   28   29 2    
    57   28   30 1    
    58   30   31 1    
    59   30   32 1    
    60   30  107 1    
    61   31  108 1    
    62   31  109 1    
    63   31  110 1    
    64   32   33 am   BACKBONE|DICT|INTERRES
    65   32  111 1    
    66   33   34 2    
    67   33   35 1    
    68   35   36 1    
    69   35   37 1    
    70   35  112 1    
    71   36  113 1    
    72   36  114 1    
    73   36  115 1    
    74   37   38 am   BACKBONE|DICT|INTERRES
    75   37  116 1    
    76   38   39 2    
    77   38   40 1    
    78   40   41 1    
    79   40   42 1    
    80   40  117 1    
    81   41  118 1    
    82   41  119 1    
    83   41  120 1    
    84   42   43 am   BACKBONE|DICT|INTERRES
    85   42  121 1    
    86   43   44 2    
    87   43   45 1    
    88   45   46 1    
    89   45   47 1    
    90   45  122 1    
    91   46  123 1    
    92   46  124 1    
    93   46  125 1    
    94   47   48 am   BACKBONE|DICT|INTERRES
    95   47  126 1    
    96   48   49 2    
    97   48   50 1    
    98   50   51 1    
    99   50   52 1    
   100   50  127 1    
   101   51  128 1    
   102   51  129 1    
   103   51  130 1    
   104   52   53 am   BACKBONE|DICT|INTERRES
   105   52  131 1    
   106   53   54 2    
   107   53   55 1    
   108   55   56 1    
   109   55   59 1    
   110   55  132 1    
   111   56   57 1    
   112   56  133 1    
   113   56  134 1    
   114   57   58 1    
   115   58  135 1    
   116   58  136 1    
   117   59   60 am   BACKBONE|DICT|INTERRES
   118   59  137 1    
   119   60   61 2    
   120   60   62 1    
   121   62   63 1    
   122   62   64 1    
   123   62  138 1    
   124   63  139 1    
   125   63  140 1    
   126   63  141 1    
   127   64   65 am   BACKBONE|DICT|INTERRES
   128   64  142 1    
   129   65   66 2    
   130   65   67 1    
   131   67   68 1    
   132   67   69 1    
   133   67  143 1    
   134   68  144 1    
   135   68  145 1    
   136   68  146 1    
   137   69   70 am   BACKBONE|DICT|INTERRES
   138   69  147 1    
   139   70   71 2    
   140   70   72 1    
   141   72   73 1    
   142   72   74 1    
   143   72  148 1    
   144   73  149 1    
   145   73  150 1    
   146   73  151 1    
   147   74   75 am   BACKBONE|DICT|INTERRES
   148   74  152 1    
   149   75   76 2    
   150   75   77 1    
   151   77   78 1    
   152   77   79 1    
   153   77  153 1    
   154   78  154 1    
   155   78  155 1    
   156   78  156 1    
   157   79   80 am   BACKBONE|DICT|INTERRES
   158   79  157 1    
   159   80   81 2    
@<TRIPOS>SUBSTRUCTURE
     1 UNK         1 GROUP             0       ****    0 ROOT    
