@<TRIPOS>MOLECULE
3R207
157   159    1
SMALL
USER_CHARGES


@<TRIPOS>ATOM
      1 CA        -50.2864  -28.5159    8.2261 C.3       0 UNK        -0.1975 
      2 C         -50.5601  -27.6797    6.9902 C.2       0 UNK         0.4852 
      3 O         -49.9391  -27.8925    5.9486 O.2       0 UNK        -0.5216 
      4 N         -51.4956  -26.7297    7.0949 N.am      1 UNK        -0.4461 
      5 CA        -52.0199  -25.9314    5.9802 C.3       1 UNK         0.0864 
      6 C6        -53.4980  -25.5061    6.2062 C.3       14 UNK        -0.0898 
      7 S7        -54.5873  -26.8884    6.7041 S.3       14 UNK        -0.2598 
      8 C8        -55.0670  -26.4126    8.3991 C.3       14 UNK         0.0286 
      9 C9        -53.8870  -26.4182    9.3615 C.ar      14 UNK        -0.0844 
     10 C10       -53.2054  -25.2301    9.6424 C.ar      14 UNK        -0.0881 
     11 C11       -52.1206  -25.2213   10.5212 C.ar      14 UNK        -0.0643 
     12 C12       -51.7484  -26.4080   11.1559 C.ar      14 UNK        -0.0930 
     13 C13       -52.4150  -27.6048   10.8841 C.ar      14 UNK        -0.0827 
     14 C14       -53.4841  -27.6050    9.9823 C.ar      14 UNK        -0.1249 
     15 C15       -51.9380  -28.9023   11.5196 C.3       14 UNK         0.0141 
     16 S16       -51.9112  -28.8302   13.3388 S.3       14 UNK        -0.2313 
     17 C17       -51.2917  -30.5141   13.7052 C.3       14 UNK        -0.0915 
     18 CA        -52.3653  -31.4623   14.3063 C.3       13 UNK         0.0968 
     19 C         -52.5150  -31.2645   15.8443 C.2       13 UNK         0.5732 
     20 N         -53.6137  -30.7105   16.3434 N.am      13 UNK        -0.7310 
     21 O         -51.6208  -31.6417   16.5980 O.2       13 UNK        -0.5035 
     22 N         -53.6235  -31.3838   13.5538 N.am      13 UNK        -0.4233 
     23 C         -54.6574  -32.2225   13.6667 C.2       13 UNK         0.4989 
     24 O         -54.5875  -33.3122   14.2378 O.2       13 UNK        -0.4996 
     25 CA        -56.0003  -31.7672   13.0510 C.3       12 UNK         0.0216 
     26 CB        -57.1914  -32.1495   13.9552 C.3       12 UNK        -0.1964 
     27 N         -56.0910  -30.3392   12.6877 N.am      12 UNK        -0.4276 
     28 C         -55.9124  -29.2731   13.4840 C.2       12 UNK         0.5020 
     29 O         -55.5295  -29.3357   14.6554 O.2       12 UNK        -0.5489 
     30 CA        -56.2278  -27.9067   12.8713 C.3       11 UNK         0.0294 
     31 CB        -57.6941  -27.5272   13.1603 C.3       11 UNK        -0.2019 
     32 N         -55.3104  -26.9190   13.4341 N.am      11 UNK        -0.4493 
     33 C         -55.1374  -25.6702   12.9858 C.2       11 UNK         0.4932 
     34 O         -55.7823  -25.2000   12.0470 O.2       11 UNK        -0.5029 
     35 CA        -54.0682  -24.7818   13.6578 C.3       10 UNK         0.0280 
     36 CB        -54.6262  -23.3884   14.0154 C.3       10 UNK        -0.1976 
     37 N         -53.3525  -25.3595   14.8027 N.am      10 UNK        -0.4242 
     38 C         -53.8500  -25.6862   16.0065 C.2       10 UNK         0.5072 
     39 O         -55.0488  -25.6672   16.2864 O.2       10 UNK        -0.5224 
     40 CA        -52.8377  -26.0805   17.1010 C.3       9 UNK         0.0343 
     41 CB        -52.6798  -27.6053   17.1660 C.3       9 UNK        -0.2003 
     42 N         -51.5194  -25.4657   16.9245 N.am      9 UNK        -0.4272 
     43 C         -51.2740  -24.1496   17.0001 C.2       9 UNK         0.4988 
     44 O         -52.1132  -23.3212   17.3563 O.2       9 UNK        -0.5108 
     45 CA        -49.8679  -23.6556   16.6042 C.3       8 UNK         0.0248 
     46 CB        -49.0830  -23.2244   17.8549 C.3       8 UNK        -0.2001 
     47 N         -49.0436  -24.5916   15.8261 N.am      8 UNK        -0.4140 
     48 C         -49.3566  -25.1326   14.6403 C.2       8 UNK         0.5028 
     49 O         -50.4618  -25.0255   14.1027 O.2       8 UNK        -0.5428 
     50 CA        -48.2557  -25.9839   13.9826 C.3       7 UNK         0.0264 
     51 CB        -48.2973  -27.4223   14.5236 C.3       7 UNK        -0.1988 
     52 N         -48.3767  -26.0278   12.5252 N.am      7 UNK        -0.4454 
     53 C         -48.2238  -24.9891   11.6931 C.2       7 UNK         0.5027 
     54 O         -47.8534  -23.8713   12.0570 O.2       7 UNK        -0.5083 
     55 CA        -48.5125  -25.2738   10.2012 C.3       6 UNK         0.0844 
     56 C56       -48.7984  -24.0062    9.3529 C.3       14 UNK        -0.0967 
     57 S57       -50.4797  -23.2696    9.3756 S.3       14 UNK        -0.2604 
     58 C58       -51.3938  -23.9171   10.8184 C.3       14 UNK         0.0134 
     59 N         -47.4150  -26.0532    9.6252 N.am      6 UNK        -0.4116 
     60 C         -47.1943  -27.3607    9.8344 C.2       5 UNK         0.5034 
     61 O         -47.9357  -28.0728   10.5133 O.2       5 UNK        -0.5045 
     62 CA        -45.9457  -27.9929    9.1915 C.3       5 UNK         0.0224 
     63 CB        -46.3341  -28.8064    7.9468 C.3       5 UNK        -0.1978 
     64 N         -44.9265  -27.0111    8.8189 N.am      5 UNK        -0.4737 
     65 C         -44.1703  -26.3247    9.6868 C.2       4 UNK         0.5027 
     66 O         -44.1821  -26.5190   10.9020 O.2       4 UNK        -0.5211 
     67 CA        -43.2646  -25.2203    9.1087 C.3       4 UNK         0.0297 
     68 CB        -41.8038  -25.6971    9.0598 C.3       4 UNK        -0.1993 
     69 N         -43.6608  -24.7481    7.7753 N.am      4 UNK        -0.4486 
     70 C         -44.8206  -24.1464    7.4748 C.2       3 UNK         0.4961 
     71 O         -45.7005  -23.9206    8.3085 O.2       3 UNK        -0.5105 
     72 CA        -45.0210  -23.7248    6.0042 C.3       3 UNK         0.0299 
     73 CB        -44.3310  -24.6733    4.9960 C.3       3 UNK        -0.1972 
     74 N         -46.4331  -23.5396    5.6463 N.am      3 UNK        -0.4305 
     75 C         -47.4032  -24.4657    5.6519 C.2       2 UNK         0.5006 
     76 O         -47.2466  -25.6432    5.9862 O.2       2 UNK        -0.5106 
     77 CA        -48.7785  -23.9818    5.1755 C.3       2 UNK         0.0296 
     78 CB        -48.7777  -23.7186    3.6561 C.3       2 UNK        -0.2002 
     79 N         -49.7979  -24.9756    5.5025 N.am      2 UNK        -0.4032 
     80 C         -51.1057  -24.7291    5.6440 C.2       1 UNK         0.5000 
     81 O         -51.5940  -23.6039    5.5137 O.2       1 UNK        -0.5238 
     82 H82       -50.2031  -27.8826    9.1061 H         1 UNK         0.0889 
     83 H83       -49.3575  -29.0734    8.1201 H         1 UNK         0.0889 
     84 H84       -51.0949  -29.2285    8.3866 H         1 UNK         0.0889 
     85 H85       -51.9717  -26.5942    7.9782 H         1 UNK         0.3028 
     86 H86       -52.0152  -26.5640    5.0896 H         1 UNK         0.0864 
     87 H87       -53.5654  -24.7043    6.9407 H         1 UNK         0.0720 
     88 H88       -53.9054  -25.0883    5.2838 H         1 UNK         0.0720 
     89 H89       -55.5411  -25.4300    8.3813 H         1 UNK         0.0814 
     90 H90       -55.8296  -27.1059    8.7569 H         1 UNK         0.0814 
     91 H91       -53.5169  -24.3036    9.1805 H         1 UNK         0.1469 
     92 H92       -50.9380  -26.4066   11.8686 H         1 UNK         0.1381 
     93 H93       -54.0025  -28.5270    9.7573 H         1 UNK         0.1206 
     94 H94       -52.5640  -29.7380   11.2036 H         1 UNK         0.0813 
     95 H95       -50.9300  -29.1161   11.1611 H         1 UNK         0.0813 
     96 H96       -50.4248  -30.4287   14.3633 H         1 UNK         0.0638 
     97 H97       -50.9043  -30.9569   12.7866 H         1 UNK         0.0638 
     98 H98       -51.9941  -32.4816   14.1854 H         1 UNK         0.0568 
     99 H99       -53.7025  -30.6075   17.3403 H         1 UNK         0.3450 
    100 H100      -54.3313  -30.3354   15.7278 H         1 UNK         0.3450 
    101 H101      -53.7881  -30.4968   13.1032 H         1 UNK         0.2987 
    102 H102      -56.1009  -32.3241   12.1182 H         1 UNK         0.0766 
    103 H103      -58.1414  -31.8663   13.5021 H         1 UNK         0.0798 
    104 H104      -57.1274  -31.6640   14.9299 H         1 UNK         0.0798 
    105 H105      -57.2283  -33.2256   14.1294 H         1 UNK         0.0798 
    106 H106      -56.3849  -30.1656   11.7356 H         1 UNK         0.3198 
    107 H107      -56.0646  -27.9515   11.7923 H         1 UNK         0.0843 
    108 H108      -57.8727  -27.4134   14.2304 H         1 UNK         0.0831 
    109 H109      -58.3779  -28.2944   12.7948 H         1 UNK         0.0831 
    110 H110      -57.9745  -26.5932   12.6739 H         1 UNK         0.0831 
    111 H111      -54.7676  -27.2483   14.2229 H         1 UNK         0.3133 
    112 H112      -53.2998  -24.6283   12.9034 H         1 UNK         0.0566 
    113 H113      -53.8522  -22.7487   14.4399 H         1 UNK         0.0814 
    114 H114      -55.0137  -22.8814   13.1308 H         1 UNK         0.0814 
    115 H115      -55.4422  -23.4525   14.7358 H         1 UNK         0.0814 
    116 H116      -52.3445  -25.4174   14.6757 H         1 UNK         0.3091 
    117 H117      -53.2401  -25.7383   18.0568 H         1 UNK         0.0702 
    118 H118      -53.6475  -28.0840   17.3210 H         1 UNK         0.0785 
    119 H119      -52.2596  -28.0086   16.2442 H         1 UNK         0.0785 
    120 H120      -52.0341  -27.9065   17.9908 H         1 UNK         0.0785 
    121 H121      -50.7705  -26.0705   16.6223 H         1 UNK         0.2998 
    122 H122      -50.0170  -22.7737   15.9779 H         1 UNK         0.0697 
    123 H123      -48.8677  -24.0716   18.5073 H         1 UNK         0.0825 
    124 H124      -49.6473  -22.4978   18.4416 H         1 UNK         0.0825 
    125 H125      -48.1364  -22.7534   17.5894 H         1 UNK         0.0825 
    126 H126      -48.1233  -24.7749   16.1999 H         1 UNK         0.3029 
    127 H127      -47.2852  -25.5432   14.2209 H         1 UNK         0.0897 
    128 H128      -49.2505  -27.9055   14.3085 H         1 UNK         0.0792 
    129 H129      -47.5073  -28.0338   14.0870 H         1 UNK         0.0792 
    130 H130      -48.1591  -27.4425   15.6054 H         1 UNK         0.0792 
    131 H131      -48.5978  -26.9275   12.1133 H         1 UNK         0.3086 
    132 H132      -49.3958  -25.9033   10.1367 H         1 UNK         0.0583 
    133 H133      -48.0743  -23.2193    9.5728 H         1 UNK         0.1020 
    134 H134      -48.6241  -24.2469    8.3043 H         1 UNK         0.1020 
    135 H135      -50.7465  -23.9991   11.6882 H         1 UNK         0.0694 
    136 H136      -52.1427  -23.1734   11.0943 H         1 UNK         0.0694 
    137 H137      -46.7362  -25.5247    9.0870 H         1 UNK         0.2989 
    138 H138      -45.5113  -28.6735    9.9273 H         1 UNK         0.1055 
    139 H139      -47.0207  -29.6122    8.2088 H         1 UNK         0.0806 
    140 H140      -45.4619  -29.2684    7.4839 H         1 UNK         0.0806 
    141 H141      -46.8266  -28.1869    7.1952 H         1 UNK         0.0806 
    142 H142      -44.8555  -26.7788    7.8384 H         1 UNK         0.3061 
    143 H143      -43.3246  -24.3689    9.7899 H         1 UNK         0.0734 
    144 H144      -41.1337  -24.8976    8.7435 H         1 UNK         0.0832 
    145 H145      -41.4676  -26.0262   10.0443 H         1 UNK         0.0832 
    146 H146      -41.6753  -26.5367    8.3755 H         1 UNK         0.0832 
    147 H147      -42.9929  -24.8918    7.0315 H         1 UNK         0.3156 
    148 H148      -44.5568  -22.7424    5.9064 H         1 UNK         0.0589 
    149 H149      -44.6500  -25.7083    5.1263 H         1 UNK         0.0808 
    150 H150      -44.5582  -24.3867    3.9690 H         1 UNK         0.0808 
    151 H151      -43.2454  -24.6458    5.0933 H         1 UNK         0.0808 
    152 H152      -46.6869  -22.5959    5.3891 H         1 UNK         0.3098 
    153 H153      -49.0062  -23.0553    5.7075 H         1 UNK         0.0720 
    154 H154      -48.5580  -24.6270    3.0936 H         1 UNK         0.0791 
    155 H155      -48.0299  -22.9745    3.3799 H         1 UNK         0.0791 
    156 H156      -49.7424  -23.3413    3.3163 H         1 UNK         0.0791 
    157 H157      -49.4526  -25.9206    5.6549 H         1 UNK         0.3028 
@<TRIPOS>BOND
     1    1    2 1    
     2    1   82 1    
     3    1   83 1    
     4    1   84 1    
     5    2    3 2    
     6    2    4 am   BACKBONE|DICT|INTERRES
     7    4    5 1    
     8    4   85 1    
     9    5    6 1    
    10    5   80 1    
    11    5   86 1    
    12    6    7 1    
    13    6   87 1    
    14    6   88 1    
    15    7    8 1    
    16    8    9 1    
    17    8   89 1    
    18    8   90 1    
    19    9   10 ar   
    20    9   14 ar   
    21   10   11 ar   
    22   10   91 1    
    23   11   12 ar   
    24   11   58 1    
    25   12   13 ar   
    26   12   92 1    
    27   13   14 ar   
    28   13   15 1    
    29   14   93 1    
    30   15   16 1    
    31   15   94 1    
    32   15   95 1    
    33   16   17 1    
    34   17   18 1    
    35   17   96 1    
    36   17   97 1    
    37   18   19 1    
    38   18   22 1    
    39   18   98 1    
    40   19   20 am   BACKBONE|DICT|INTERRES
    41   19   21 2    
    42   20   99 1    
    43   20  100 1    
    44   22   23 am   BACKBONE|DICT|INTERRES
    45   22  101 1    
    46   23   24 2    
    47   23   25 1    
    48   25   26 1    
    49   25   27 1    
    50   25  102 1    
    51   26  103 1    
    52   26  104 1    
    53   26  105 1    
    54   27   28 am   BACKBONE|DICT|INTERRES
    55   27  106 1    
    56   28   29 2    
    57   28   30 1    
    58   30   31 1    
    59   30   32 1    
    60   30  107 1    
    61   31  108 1    
    62   31  109 1    
    63   31  110 1    
    64   32   33 am   BACKBONE|DICT|INTERRES
    65   32  111 1    
    66   33   34 2    
    67   33   35 1    
    68   35   36 1    
    69   35   37 1    
    70   35  112 1    
    71   36  113 1    
    72   36  114 1    
    73   36  115 1    
    74   37   38 am   BACKBONE|DICT|INTERRES
    75   37  116 1    
    76   38   39 2    
    77   38   40 1    
    78   40   41 1    
    79   40   42 1    
    80   40  117 1    
    81   41  118 1    
    82   41  119 1    
    83   41  120 1    
    84   42   43 am   BACKBONE|DICT|INTERRES
    85   42  121 1    
    86   43   44 2    
    87   43   45 1    
    88   45   46 1    
    89   45   47 1    
    90   45  122 1    
    91   46  123 1    
    92   46  124 1    
    93   46  125 1    
    94   47   48 am   BACKBONE|DICT|INTERRES
    95   47  126 1    
    96   48   49 2    
    97   48   50 1    
    98   50   51 1    
    99   50   52 1    
   100   50  127 1    
   101   51  128 1    
   102   51  129 1    
   103   51  130 1    
   104   52   53 am   BACKBONE|DICT|INTERRES
   105   52  131 1    
   106   53   54 2    
   107   53   55 1    
   108   55   56 1    
   109   55   59 1    
   110   55  132 1    
   111   56   57 1    
   112   56  133 1    
   113   56  134 1    
   114   57   58 1    
   115   58  135 1    
   116   58  136 1    
   117   59   60 am   BACKBONE|DICT|INTERRES
   118   59  137 1    
   119   60   61 2    
   120   60   62 1    
   121   62   63 1    
   122   62   64 1    
   123   62  138 1    
   124   63  139 1    
   125   63  140 1    
   126   63  141 1    
   127   64   65 am   BACKBONE|DICT|INTERRES
   128   64  142 1    
   129   65   66 2    
   130   65   67 1    
   131   67   68 1    
   132   67   69 1    
   133   67  143 1    
   134   68  144 1    
   135   68  145 1    
   136   68  146 1    
   137   69   70 am   BACKBONE|DICT|INTERRES
   138   69  147 1    
   139   70   71 2    
   140   70   72 1    
   141   72   73 1    
   142   72   74 1    
   143   72  148 1    
   144   73  149 1    
   145   73  150 1    
   146   73  151 1    
   147   74   75 am   BACKBONE|DICT|INTERRES
   148   74  152 1    
   149   75   76 2    
   150   75   77 1    
   151   77   78 1    
   152   77   79 1    
   153   77  153 1    
   154   78  154 1    
   155   78  155 1    
   156   78  156 1    
   157   79   80 am   BACKBONE|DICT|INTERRES
   158   79  157 1    
   159   80   81 2    
@<TRIPOS>SUBSTRUCTURE
     1 UNK         1 GROUP             0       ****    0 ROOT    
