@<TRIPOS>MOLECULE
3R207
157   159    1
SMALL
USER_CHARGES


@<TRIPOS>ATOM
      1 CA        -47.1770  -30.4505    6.0469 C.3       0 UNK        -0.1975 
      2 C         -48.3861  -30.3368    6.9722 C.2       0 UNK         0.4852 
      3 O         -48.4660  -31.0790    7.9493 O.2       0 UNK        -0.5216 
      4 N         -49.3513  -29.4452    6.7093 N.am      1 UNK        -0.4461 
      5 CA        -49.4184  -28.5137    5.5759 C.3       1 UNK         0.0864 
      6 C6        -50.8817  -28.1128    5.2540 C.3       14 UNK        -0.0898 
      7 S7        -51.9120  -29.5914    4.9224 S.3       14 UNK        -0.2598 
      8 C8        -53.3940  -29.3636    5.9643 C.3       14 UNK         0.0286 
      9 C9        -53.0745  -28.9474    7.3937 C.ar      14 UNK        -0.0844 
     10 C10       -53.4147  -27.6655    7.8287 C.ar      14 UNK        -0.0881 
     11 C11       -53.0967  -27.2455    9.1204 C.ar      14 UNK        -0.0643 
     12 C12       -52.4502  -28.1243    9.9957 C.ar      14 UNK        -0.0930 
     13 C13       -52.1163  -29.4163    9.5759 C.ar      14 UNK        -0.0827 
     14 C14       -52.4325  -29.8227    8.2742 C.ar      14 UNK        -0.1249 
     15 C15       -51.3736  -30.3657   10.5033 C.3       14 UNK         0.0141 
     16 S16       -52.4494  -31.6991   11.1170 S.3       14 UNK        -0.2313 
     17 C17       -52.9296  -31.1180   12.7775 C.3       14 UNK        -0.0915 
     18 CA        -54.4468  -30.8188   12.8761 C.3       13 UNK         0.0968 
     19 C         -54.9297  -30.8765   14.3506 C.2       13 UNK         0.5732 
     20 N         -55.3389  -32.0462   14.8226 N.am      13 UNK        -0.7310 
     21 O         -54.8993  -29.8877   15.0795 O.2       13 UNK        -0.5035 
     22 N         -54.7747  -29.5312   12.2547 N.am      13 UNK        -0.4233 
     23 C         -56.0022  -29.1568   11.8842 C.2       13 UNK         0.4989 
     24 O         -56.9865  -29.8987   11.9047 O.2       13 UNK        -0.4996 
     25 CA        -56.1556  -27.6842   11.4650 C.3       12 UNK         0.0216 
     26 CB        -57.4132  -27.4383   10.6116 C.3       12 UNK        -0.1964 
     27 N         -56.1945  -26.8162   12.6439 N.am      12 UNK        -0.4276 
     28 C         -55.1328  -26.4823   13.3882 C.2       12 UNK         0.5020 
     29 O         -53.9708  -26.7884   13.1012 O.2       12 UNK        -0.5489 
     30 CA        -55.4240  -25.6982   14.6754 C.3       11 UNK         0.0294 
     31 CB        -56.1630  -26.5864   15.6992 C.3       11 UNK        -0.2019 
     32 N         -54.1550  -25.2356   15.2285 N.am      11 UNK        -0.4493 
     33 C         -53.9792  -24.3872   16.2494 C.2       11 UNK         0.4932 
     34 O         -54.9074  -23.8226   16.8309 O.2       11 UNK        -0.5029 
     35 CA        -52.5252  -24.1096   16.6876 C.3       10 UNK         0.0280 
     36 CB        -52.4016  -23.7553   18.1850 C.3       10 UNK        -0.1976 
     37 N         -51.5933  -25.1795   16.3075 N.am      10 UNK        -0.4242 
     38 C         -51.5640  -26.4427   16.7591 C.2       10 UNK         0.5072 
     39 O         -52.2822  -26.8715   17.6631 O.2       10 UNK        -0.5224 
     40 CA        -50.5888  -27.4098   16.0663 C.3       9 UNK         0.0343 
     41 CB        -51.3164  -28.1990   14.9656 C.3       9 UNK        -0.2003 
     42 N         -49.4100  -26.7531   15.4923 N.am      9 UNK        -0.4272 
     43 C         -48.3728  -26.3056   16.2153 C.2       9 UNK         0.4988 
     44 O         -48.3136  -26.3767   17.4436 O.2       9 UNK        -0.5108 
     45 CA        -47.1929  -25.6899   15.4428 C.3       8 UNK         0.0248 
     46 CB        -46.3743  -26.7815   14.7340 C.3       8 UNK        -0.2001 
     47 N         -47.6091  -24.6748   14.4737 N.am      8 UNK        -0.4140 
     48 C         -48.1289  -23.4818   14.7982 C.2       8 UNK         0.5028 
     49 O         -48.2713  -23.0849   15.9552 O.2       8 UNK        -0.5428 
     50 CA        -48.5919  -22.5842   13.6366 C.3       7 UNK         0.0264 
     51 CB        -47.4133  -21.7959   13.0432 C.3       7 UNK        -0.1988 
     52 N         -49.2690  -23.3310   12.5746 N.am      7 UNK        -0.4454 
     53 C         -50.4157  -24.0079   12.7371 C.2       7 UNK         0.5027 
     54 O         -51.0544  -24.0367   13.7866 O.2       7 UNK        -0.5083 
     55 CA        -50.9123  -24.8212   11.5330 C.3       6 UNK         0.0844 
     56 C56       -51.6662  -23.8923   10.5461 C.3       14 UNK        -0.0967 
     57 S57       -52.1288  -24.6929    8.9796 S.3       14 UNK        -0.2604 
     58 C58       -53.4308  -25.8267    9.5415 C.3       14 UNK         0.0134 
     59 N         -49.8119  -25.5755   10.9269 N.am      6 UNK        -0.4116 
     60 C         -49.1539  -26.5769   11.5302 C.2       5 UNK         0.5034 
     61 O         -49.4411  -27.0162   12.6421 O.2       5 UNK        -0.5045 
     62 CA        -47.9356  -27.1569   10.7975 C.3       5 UNK         0.0224 
     63 CB        -48.3588  -28.3018    9.8745 C.3       5 UNK        -0.1978 
     64 N         -47.2068  -26.1446   10.0316 N.am      5 UNK        -0.4737 
     65 C         -46.5135  -25.1489   10.6031 C.2       4 UNK         0.5027 
     66 O         -46.3837  -25.0221   11.8205 O.2       4 UNK        -0.5211 
     67 CA        -45.9150  -24.0875    9.6672 C.3       4 UNK         0.0297 
     68 CB        -44.5427  -24.5399    9.1454 C.3       4 UNK        -0.1993 
     69 N         -46.7858  -23.7672    8.5346 N.am      4 UNK        -0.4486 
     70 C         -48.0296  -23.2806    8.6140 C.2       3 UNK         0.4961 
     71 O         -48.5758  -23.0091    9.6836 O.2       3 UNK        -0.5105 
     72 CA        -48.8173  -23.0914    7.3002 C.3       3 UNK         0.0299 
     73 CB        -48.6773  -21.6470    6.7838 C.3       3 UNK        -0.1972 
     74 N         -48.5288  -24.0747    6.2389 N.am      3 UNK        -0.4305 
     75 C         -47.3838  -24.2781    5.5682 C.2       2 UNK         0.5006 
     76 O         -46.3652  -23.6113    5.7582 O.2       2 UNK        -0.5106 
     77 CA        -47.3451  -25.4216    4.5301 C.3       2 UNK         0.0296 
     78 CB        -45.9323  -26.0344    4.4087 C.3       2 UNK        -0.2002 
     79 N         -48.3332  -26.4981    4.7078 N.am      2 UNK        -0.4032 
     80 C         -48.5058  -27.2822    5.7841 C.2       1 UNK         0.5000 
     81 O         -47.9639  -27.0778    6.8743 O.2       1 UNK        -0.5238 
     82 H82       -46.4828  -31.2031    6.4201 H         1 UNK         0.0889 
     83 H83       -46.6364  -29.5065    5.9889 H         1 UNK         0.0889 
     84 H84       -47.4797  -30.7501    5.0442 H         1 UNK         0.0889 
     85 H85       -50.1355  -29.3880    7.3431 H         1 UNK         0.3028 
     86 H86       -49.0356  -29.0328    4.6954 H         1 UNK         0.0864 
     87 H87       -51.2996  -27.5150    6.0635 H         1 UNK         0.0720 
     88 H88       -50.9278  -27.4831    4.3642 H         1 UNK         0.0720 
     89 H89       -53.9579  -30.2972    5.9822 H         1 UNK         0.0814 
     90 H90       -54.0431  -28.6290    5.4851 H         1 UNK         0.0814 
     91 H91       -53.9030  -26.9774    7.1518 H         1 UNK         0.1469 
     92 H92       -52.1941  -27.7959   10.9941 H         1 UNK         0.1381 
     93 H93       -52.1655  -30.8168    7.9415 H         1 UNK         0.1206 
     94 H94       -50.5481  -30.8192    9.9524 H         1 UNK         0.0813 
     95 H95       -50.9178  -29.8268   11.3350 H         1 UNK         0.0813 
     96 H96       -52.6456  -31.9138   13.4691 H         1 UNK         0.0638 
     97 H97       -52.3423  -30.2469   13.0701 H         1 UNK         0.0638 
     98 H98       -54.9856  -31.5971   12.3313 H         1 UNK         0.0568 
     99 H99       -55.6412  -32.1059   15.7822 H         1 UNK         0.3450 
    100 H100      -55.3556  -32.8684   14.2396 H         1 UNK         0.3450 
    101 H101      -54.0666  -28.8106   12.3180 H         1 UNK         0.2987 
    102 H102      -55.2906  -27.4237   10.8572 H         1 UNK         0.0766 
    103 H103      -57.4604  -26.4057   10.2653 H         1 UNK         0.0798 
    104 H104      -58.3295  -27.6496   11.1643 H         1 UNK         0.0798 
    105 H105      -57.4116  -28.0756    9.7262 H         1 UNK         0.0798 
    106 H106      -57.1126  -26.5447   12.9658 H         1 UNK         0.3198 
    107 H107      -56.0359  -24.8303   14.4220 H         1 UNK         0.0843 
    108 H108      -57.0829  -27.0002   15.2851 H         1 UNK         0.0831 
    109 H109      -56.4431  -26.0262   16.5909 H         1 UNK         0.0831 
    110 H110      -55.5428  -27.4254   16.0169 H         1 UNK         0.0831 
    111 H111      -53.3469  -25.6256   14.7563 H         1 UNK         0.3133 
    112 H112      -52.2093  -23.2313   16.1233 H         1 UNK         0.0566 
    113 H113      -51.3639  -23.5732   18.4646 H         1 UNK         0.0814 
    114 H114      -52.9628  -22.8500   18.4192 H         1 UNK         0.0814 
    115 H115      -52.7889  -24.5488   18.8245 H         1 UNK         0.0814 
    116 H116      -51.0072  -24.9470   15.5104 H         1 UNK         0.3091 
    117 H117      -50.2488  -28.1236   16.8197 H         1 UNK         0.0702 
    118 H118      -52.2010  -28.7026   15.3587 H         1 UNK         0.0785 
    119 H119      -51.6466  -27.5476   14.1560 H         1 UNK         0.0785 
    120 H120      -50.6700  -28.9633   14.5342 H         1 UNK         0.0785 
    121 H121      -49.3708  -26.7009   14.4761 H         1 UNK         0.2998 
    122 H122      -46.5396  -25.2030   16.1700 H         1 UNK         0.0697 
    123 H123      -46.9628  -27.3047   13.9803 H         1 UNK         0.0825 
    124 H124      -46.0197  -27.5274   15.4465 H         1 UNK         0.0825 
    125 H125      -45.4976  -26.3618   14.2402 H         1 UNK         0.0825 
    126 H126      -47.4487  -24.8830   13.4922 H         1 UNK         0.3029 
    127 H127      -49.3098  -21.8679   14.0423 H         1 UNK         0.0897 
    128 H128      -47.7454  -21.1170   12.2575 H         1 UNK         0.0792 
    129 H129      -46.6573  -22.4555   12.6169 H         1 UNK         0.0792 
    130 H130      -46.9243  -21.1923   13.8091 H         1 UNK         0.0792 
    131 H131      -48.8359  -23.3278   11.6552 H         1 UNK         0.3086 
    132 H132      -51.6244  -25.5539   11.9177 H         1 UNK         0.0583 
    133 H133      -52.5711  -23.5007   11.0153 H         1 UNK         0.1020 
    134 H134      -51.0674  -23.0160   10.2931 H         1 UNK         0.1020 
    135 H135      -53.5578  -25.7704   10.6223 H         1 UNK         0.0694 
    136 H136      -54.3841  -25.5194    9.1089 H         1 UNK         0.0694 
    137 H137      -49.4936  -25.2530   10.0253 H         1 UNK         0.2989 
    138 H138      -47.2552  -27.5625   11.5493 H         1 UNK         0.1055 
    139 H139      -48.7502  -29.1386   10.4518 H         1 UNK         0.0806 
    140 H140      -47.5132  -28.6778    9.2989 H         1 UNK         0.0806 
    141 H141      -49.1351  -27.9916    9.1740 H         1 UNK         0.0806 
    142 H142      -47.2748  -26.1895    9.0216 H         1 UNK         0.3061 
    143 H143      -45.7797  -23.1729   10.2480 H         1 UNK         0.0734 
    144 H144      -44.0686  -23.7605    8.5486 H         1 UNK         0.0832 
    145 H145      -43.8682  -24.7704    9.9713 H         1 UNK         0.0832 
    146 H146      -44.6207  -25.4352    8.5270 H         1 UNK         0.0832 
    147 H147      -46.4068  -23.8972    7.5999 H         1 UNK         0.3156 
    148 H148      -49.8675  -23.2417    7.5533 H         1 UNK         0.0589 
    149 H149      -47.6468  -21.4023    6.5249 H         1 UNK         0.0808 
    150 H150      -49.2944  -21.4796    5.9011 H         1 UNK         0.0808 
    151 H151      -48.9972  -20.9317    7.5428 H         1 UNK         0.0808 
    152 H152      -49.2892  -24.7063    6.0315 H         1 UNK         0.3098 
    153 H153      -47.5814  -24.9530    3.5737 H         1 UNK         0.0720 
    154 H154      -45.9006  -26.8134    3.6469 H         1 UNK         0.0791 
    155 H155      -45.6030  -26.4739    5.3512 H         1 UNK         0.0791 
    156 H156      -45.1954  -25.2818    4.1250 H         1 UNK         0.0791 
    157 H157      -48.8558  -26.7274    3.8732 H         1 UNK         0.3028 
@<TRIPOS>BOND
     1    1    2 1    
     2    1   82 1    
     3    1   83 1    
     4    1   84 1    
     5    2    3 2    
     6    2    4 am   BACKBONE|DICT|INTERRES
     7    4    5 1    
     8    4   85 1    
     9    5    6 1    
    10    5   80 1    
    11    5   86 1    
    12    6    7 1    
    13    6   87 1    
    14    6   88 1    
    15    7    8 1    
    16    8    9 1    
    17    8   89 1    
    18    8   90 1    
    19    9   10 ar   
    20    9   14 ar   
    21   10   11 ar   
    22   10   91 1    
    23   11   12 ar   
    24   11   58 1    
    25   12   13 ar   
    26   12   92 1    
    27   13   14 ar   
    28   13   15 1    
    29   14   93 1    
    30   15   16 1    
    31   15   94 1    
    32   15   95 1    
    33   16   17 1    
    34   17   18 1    
    35   17   96 1    
    36   17   97 1    
    37   18   19 1    
    38   18   22 1    
    39   18   98 1    
    40   19   20 am   BACKBONE|DICT|INTERRES
    41   19   21 2    
    42   20   99 1    
    43   20  100 1    
    44   22   23 am   BACKBONE|DICT|INTERRES
    45   22  101 1    
    46   23   24 2    
    47   23   25 1    
    48   25   26 1    
    49   25   27 1    
    50   25  102 1    
    51   26  103 1    
    52   26  104 1    
    53   26  105 1    
    54   27   28 am   BACKBONE|DICT|INTERRES
    55   27  106 1    
    56   28   29 2    
    57   28   30 1    
    58   30   31 1    
    59   30   32 1    
    60   30  107 1    
    61   31  108 1    
    62   31  109 1    
    63   31  110 1    
    64   32   33 am   BACKBONE|DICT|INTERRES
    65   32  111 1    
    66   33   34 2    
    67   33   35 1    
    68   35   36 1    
    69   35   37 1    
    70   35  112 1    
    71   36  113 1    
    72   36  114 1    
    73   36  115 1    
    74   37   38 am   BACKBONE|DICT|INTERRES
    75   37  116 1    
    76   38   39 2    
    77   38   40 1    
    78   40   41 1    
    79   40   42 1    
    80   40  117 1    
    81   41  118 1    
    82   41  119 1    
    83   41  120 1    
    84   42   43 am   BACKBONE|DICT|INTERRES
    85   42  121 1    
    86   43   44 2    
    87   43   45 1    
    88   45   46 1    
    89   45   47 1    
    90   45  122 1    
    91   46  123 1    
    92   46  124 1    
    93   46  125 1    
    94   47   48 am   BACKBONE|DICT|INTERRES
    95   47  126 1    
    96   48   49 2    
    97   48   50 1    
    98   50   51 1    
    99   50   52 1    
   100   50  127 1    
   101   51  128 1    
   102   51  129 1    
   103   51  130 1    
   104   52   53 am   BACKBONE|DICT|INTERRES
   105   52  131 1    
   106   53   54 2    
   107   53   55 1    
   108   55   56 1    
   109   55   59 1    
   110   55  132 1    
   111   56   57 1    
   112   56  133 1    
   113   56  134 1    
   114   57   58 1    
   115   58  135 1    
   116   58  136 1    
   117   59   60 am   BACKBONE|DICT|INTERRES
   118   59  137 1    
   119   60   61 2    
   120   60   62 1    
   121   62   63 1    
   122   62   64 1    
   123   62  138 1    
   124   63  139 1    
   125   63  140 1    
   126   63  141 1    
   127   64   65 am   BACKBONE|DICT|INTERRES
   128   64  142 1    
   129   65   66 2    
   130   65   67 1    
   131   67   68 1    
   132   67   69 1    
   133   67  143 1    
   134   68  144 1    
   135   68  145 1    
   136   68  146 1    
   137   69   70 am   BACKBONE|DICT|INTERRES
   138   69  147 1    
   139   70   71 2    
   140   70   72 1    
   141   72   73 1    
   142   72   74 1    
   143   72  148 1    
   144   73  149 1    
   145   73  150 1    
   146   73  151 1    
   147   74   75 am   BACKBONE|DICT|INTERRES
   148   74  152 1    
   149   75   76 2    
   150   75   77 1    
   151   77   78 1    
   152   77   79 1    
   153   77  153 1    
   154   78  154 1    
   155   78  155 1    
   156   78  156 1    
   157   79   80 am   BACKBONE|DICT|INTERRES
   158   79  157 1    
   159   80   81 2    
@<TRIPOS>SUBSTRUCTURE
     1 UNK         1 GROUP             0       ****    0 ROOT    
