@<TRIPOS>MOLECULE
3R207
157   159    1
SMALL
USER_CHARGES


@<TRIPOS>ATOM
      1 CA        -48.5953  -30.1437    3.0410 C.3       0 UNK        -0.1975 
      2 C         -48.4063  -29.7182    4.4897 C.2       0 UNK         0.4852 
      3 O         -47.7639  -30.4391    5.2539 O.2       0 UNK        -0.5216 
      4 N         -48.9577  -28.5519    4.8601 N.am      1 UNK        -0.4461 
      5 CA        -48.9268  -27.9508    6.2057 C.3       1 UNK         0.0864 
      6 C6        -49.7030  -28.7722    7.2740 C.3       14 UNK        -0.0898 
      7 S7        -51.4059  -29.1923    6.7579 S.3       14 UNK        -0.2598 
      8 C8        -52.3172  -29.1289    8.3410 C.3       14 UNK         0.0286 
      9 C9        -53.4118  -28.0634    8.4396 C.ar      14 UNK        -0.0844 
     10 C10       -53.5536  -27.0135    7.5203 C.ar      14 UNK        -0.0881 
     11 C11       -54.5762  -26.0693    7.6644 C.ar      14 UNK        -0.0643 
     12 C12       -55.4522  -26.1627    8.7501 C.ar      14 UNK        -0.0930 
     13 C13       -55.3225  -27.2010    9.6751 C.ar      14 UNK        -0.0827 
     14 C14       -54.3097  -28.1481    9.5074 C.ar      14 UNK        -0.1249 
     15 C15       -56.2879  -27.3283   10.8423 C.3       14 UNK         0.0141 
     16 S16       -55.4673  -26.9674   12.4260 S.3       14 UNK        -0.2313 
     17 C17       -56.6509  -27.7084   13.6035 C.3       14 UNK        -0.0915 
     18 CA        -56.2184  -29.1010   14.1388 C.3       13 UNK         0.0968 
     19 C         -56.3127  -30.2101   13.0473 C.2       13 UNK         0.5732 
     20 N         -55.2156  -30.8151   12.6033 N.am      13 UNK        -0.7310 
     21 O         -57.4111  -30.5321   12.6008 O.2       13 UNK        -0.5035 
     22 N         -54.9280  -29.0357   14.8374 N.am      13 UNK        -0.4233 
     23 C         -54.4626  -29.9740   15.6719 C.2       13 UNK         0.4989 
     24 O         -55.1397  -30.9225   16.0730 O.2       13 UNK        -0.4996 
     25 CA        -52.9955  -29.8368   16.1285 C.3       12 UNK         0.0216 
     26 CB        -52.3428  -31.2025   16.4312 C.3       12 UNK        -0.1964 
     27 N         -52.1517  -29.0574   15.2094 N.am      12 UNK        -0.4276 
     28 C         -51.8772  -29.3258   13.9228 C.2       12 UNK         0.5020 
     29 O         -52.3672  -30.2728   13.3055 O.2       12 UNK        -0.5489 
     30 CA        -50.9267  -28.3678   13.1812 C.3       11 UNK         0.0294 
     31 CB        -51.6899  -27.5540   12.1233 C.3       11 UNK        -0.2019 
     32 N         -50.2125  -27.4384   14.0591 N.am      11 UNK        -0.4493 
     33 C         -49.1526  -27.7489   14.8180 C.2       11 UNK         0.4932 
     34 O         -48.6762  -28.8806   14.8994 O.2       11 UNK        -0.5029 
     35 CA        -48.5202  -26.6040   15.6221 C.3       10 UNK         0.0280 
     36 CB        -47.6409  -25.7317   14.7106 C.3       10 UNK        -0.1976 
     37 N         -49.5478  -25.7669   16.2434 N.am      10 UNK        -0.4242 
     38 C         -49.8652  -25.7767   17.5460 C.2       10 UNK         0.5072 
     39 O         -49.2969  -26.4762   18.3856 O.2       10 UNK        -0.5224 
     40 CA        -51.0080  -24.8479   18.0062 C.3       9 UNK         0.0343 
     41 CB        -50.4383  -23.5245   18.5423 C.3       9 UNK        -0.2003 
     42 N         -51.9918  -24.5568   16.9603 N.am      9 UNK        -0.4272 
     43 C         -52.8110  -25.4650   16.4127 C.2       9 UNK         0.4988 
     44 O         -52.8823  -26.6328   16.7905 O.2       9 UNK        -0.5108 
     45 CA        -53.6588  -25.0229   15.2067 C.3       8 UNK         0.0248 
     46 CB        -55.0834  -24.6592   15.6520 C.3       8 UNK        -0.2001 
     47 N         -53.0959  -23.9239   14.4101 N.am      8 UNK        -0.4140 
     48 C         -51.8864  -23.9286   13.8342 C.2       8 UNK         0.5028 
     49 O         -51.0609  -24.8308   13.9831 O.2       8 UNK        -0.5428 
     50 CA        -51.5288  -22.7321   12.9490 C.3       7 UNK         0.0264 
     51 CB        -50.1535  -22.1539   13.3258 C.3       7 UNK        -0.1988 
     52 N         -51.5116  -23.1643   11.5532 N.am      7 UNK        -0.4454 
     53 C         -52.6086  -23.2483   10.7818 C.2       7 UNK         0.5027 
     54 O         -53.7308  -22.9389   11.1874 O.2       7 UNK        -0.5083 
     55 CA        -52.4313  -23.7117    9.3183 C.3       6 UNK         0.0844 
     56 C56       -53.5107  -23.1074    8.3783 C.3       14 UNK        -0.0967 
     57 S57       -53.3976  -23.7429    6.6709 S.3       14 UNK        -0.2604 
     58 C58       -54.7510  -24.9604    6.6341 C.3       14 UNK         0.0134 
     59 N         -51.0715  -23.4016    8.8747 N.am      6 UNK        -0.4116 
     60 C         -50.2164  -24.2652    8.3185 C.2       5 UNK         0.5034 
     61 O         -50.5038  -25.4136    7.9820 O.2       5 UNK        -0.5045 
     62 CA        -48.7600  -23.7892    8.1560 C.3       5 UNK         0.0224 
     63 CB        -48.5399  -22.2828    8.4260 C.3       5 UNK        -0.1978 
     64 N         -47.8562  -24.5855    8.9916 N.am      5 UNK        -0.4737 
     65 C         -47.9687  -24.8265   10.3088 C.2       4 UNK         0.5027 
     66 O         -48.8461  -24.3388   11.0227 O.2       4 UNK        -0.5211 
     67 CA        -46.9406  -25.7792   10.9429 C.3       4 UNK         0.0297 
     68 CB        -47.5878  -27.1410   11.2419 C.3       4 UNK        -0.1993 
     69 N         -45.7558  -25.9743   10.1027 N.am      4 UNK        -0.4486 
     70 C         -44.7322  -25.1093   10.0451 C.2       3 UNK         0.4961 
     71 O         -44.6449  -24.1087   10.7575 O.2       3 UNK        -0.5105 
     72 CA        -43.6153  -25.3879    9.0212 C.3       3 UNK         0.0299 
     73 CB        -42.4154  -26.0598    9.7084 C.3       3 UNK        -0.1972 
     74 N         -44.0287  -26.2019    7.8743 N.am      3 UNK        -0.4305 
     75 C         -44.9406  -25.8501    6.9571 C.2       2 UNK         0.5006 
     76 O         -45.5631  -24.7873    6.9850 O.2       2 UNK        -0.5106 
     77 CA        -45.2303  -26.8531    5.8227 C.3       2 UNK         0.0296 
     78 CB        -44.4297  -28.1731    5.9185 C.3       2 UNK        -0.2002 
     79 N         -46.6626  -27.1457    5.6955 N.am      2 UNK        -0.4032 
     80 C         -47.4849  -27.6060    6.6537 C.2       1 UNK         0.5000 
     81 O         -47.1364  -27.7777    7.8251 O.2       1 UNK        -0.5238 
     82 H82       -49.1129  -31.1016    2.9972 H         1 UNK         0.0889 
     83 H83       -47.6272  -30.2565    2.5537 H         1 UNK         0.0889 
     84 H84       -49.1782  -29.4179    2.4740 H         1 UNK         0.0889 
     85 H85       -49.4814  -28.0261    4.1739 H         1 UNK         0.3028 
     86 H86       -49.4355  -26.9906    6.1104 H         1 UNK         0.0864 
     87 H87       -49.1785  -29.7004    7.5069 H         1 UNK         0.0720 
     88 H88       -49.7452  -28.2013    8.2035 H         1 UNK         0.0720 
     89 H89       -52.7722  -30.1092    8.4909 H         1 UNK         0.0814 
     90 H90       -51.6236  -28.9936    9.1710 H         1 UNK         0.0814 
     91 H91       -52.8698  -26.9128    6.6897 H         1 UNK         0.1469 
     92 H92       -56.2420  -25.4337    8.8691 H         1 UNK         0.1381 
     93 H93       -54.2183  -28.9540   10.2237 H         1 UNK         0.1206 
     94 H94       -56.6917  -28.3409   10.8507 H         1 UNK         0.0813 
     95 H95       -57.1403  -26.6581   10.7217 H         1 UNK         0.0813 
     96 H96       -57.6419  -27.7586   13.1487 H         1 UNK         0.0638 
     97 H97       -56.7537  -27.0176   14.4412 H         1 UNK         0.0638 
     98 H98       -56.9590  -29.3824   14.8897 H         1 UNK         0.0568 
     99 H99       -55.3043  -31.5343   11.9044 H         1 UNK         0.3450 
    100 H100      -54.2951  -30.5653   12.9515 H         1 UNK         0.3450 
    101 H101      -54.3057  -28.2982   14.5458 H         1 UNK         0.2987 
    102 H102      -53.0264  -29.2765   17.0637 H         1 UNK         0.0766 
    103 H103      -52.8781  -31.7281   17.2229 H         1 UNK         0.0798 
    104 H104      -51.3117  -31.0837   16.7641 H         1 UNK         0.0798 
    105 H105      -52.3395  -31.8515   15.5547 H         1 UNK         0.0798 
    106 H106      -51.7600  -28.2127   15.6069 H         1 UNK         0.3198 
    107 H107      -50.1900  -28.9872   12.6651 H         1 UNK         0.0843 
    108 H108      -52.4228  -26.8866   12.5764 H         1 UNK         0.0831 
    109 H109      -52.2276  -28.2114   11.4415 H         1 UNK         0.0831 
    110 H110      -51.0146  -26.9454   11.5211 H         1 UNK         0.0831 
    111 H111      -50.5195  -26.4642   14.0234 H         1 UNK         0.3133 
    112 H112      -47.8762  -27.0463   16.3849 H         1 UNK         0.0566 
    113 H113      -47.1435  -24.9447   15.2774 H         1 UNK         0.0814 
    114 H114      -48.2221  -25.2555   13.9192 H         1 UNK         0.0814 
    115 H115      -46.8626  -26.3287   14.2335 H         1 UNK         0.0814 
    116 H116      -50.1000  -25.1970   15.6086 H         1 UNK         0.3091 
    117 H117      -51.5288  -25.3520   18.8232 H         1 UNK         0.0702 
    118 H118      -51.2249  -22.8894   18.9502 H         1 UNK         0.0785 
    119 H119      -49.9204  -22.9626   17.7639 H         1 UNK         0.0785 
    120 H120      -49.7219  -23.7052   19.3451 H         1 UNK         0.0785 
    121 H121      -52.0019  -23.6180   16.5897 H         1 UNK         0.2998 
    122 H122      -53.7228  -25.8873   14.5449 H         1 UNK         0.0697 
    123 H123      -55.0959  -23.7668   16.2787 H         1 UNK         0.0825 
    124 H124      -55.5315  -25.4698   16.2288 H         1 UNK         0.0825 
    125 H125      -55.7328  -24.4800   14.7946 H         1 UNK         0.0825 
    126 H126      -53.7157  -23.1501   14.2151 H         1 UNK         0.3029 
    127 H127      -52.2726  -21.9432   13.0821 H         1 UNK         0.0897 
    128 H128      -49.3581  -22.8938   13.2269 H         1 UNK         0.0792 
    129 H129      -50.1465  -21.8070   14.3598 H         1 UNK         0.0792 
    130 H130      -49.8956  -21.3030   12.6953 H         1 UNK         0.0792 
    131 H131      -50.6258  -23.5368   11.2156 H         1 UNK         0.3086 
    132 H132      -52.5687  -24.7947    9.3451 H         1 UNK         0.0583 
    133 H133      -54.5140  -23.3072    8.7587 H         1 UNK         0.1020 
    134 H134      -53.4171  -22.0206    8.3436 H         1 UNK         0.1020 
    135 H135      -55.6999  -24.4412    6.7778 H         1 UNK         0.0694 
    136 H136      -54.7956  -25.4041    5.6386 H         1 UNK         0.0694 
    137 H137      -50.7279  -22.4865    9.1272 H         1 UNK         0.2989 
    138 H138      -48.4862  -23.9877    7.1184 H         1 UNK         0.1055 
    139 H139      -48.7444  -22.0109    9.4624 H         1 UNK         0.0806 
    140 H140      -49.1709  -21.6674    7.7830 H         1 UNK         0.0806 
    141 H141      -47.5075  -22.0020    8.2160 H         1 UNK         0.0806 
    142 H142      -47.0872  -25.0212    8.4963 H         1 UNK         0.3061 
    143 H143      -46.6324  -25.3365   11.8921 H         1 UNK         0.0734 
    144 H144      -47.9259  -27.6400   10.3337 H         1 UNK         0.0832 
    145 H145      -46.8977  -27.8075   11.7589 H         1 UNK         0.0832 
    146 H146      -48.4607  -27.0183   11.8824 H         1 UNK         0.0832 
    147 H147      -45.7800  -26.7558    9.4586 H         1 UNK         0.3156 
    148 H148      -43.2867  -24.4214    8.6333 H         1 UNK         0.0589 
    149 H149      -42.6725  -27.0462   10.0968 H         1 UNK         0.0808 
    150 H150      -42.0617  -25.4614   10.5494 H         1 UNK         0.0808 
    151 H151      -41.5763  -26.1755    9.0220 H         1 UNK         0.0808 
    152 H152      -43.5833  -27.1030    7.7762 H         1 UNK         0.3098 
    153 H153      -44.9343  -26.3540    4.8990 H         1 UNK         0.0720 
    154 H154      -43.3542  -27.9921    5.8997 H         1 UNK         0.0791 
    155 H155      -44.6531  -28.8236    5.0725 H         1 UNK         0.0791 
    156 H156      -44.6643  -28.7321    6.8256 H         1 UNK         0.0791 
    157 H157      -47.0530  -27.0119    4.7736 H         1 UNK         0.3028 
@<TRIPOS>BOND
     1    1    2 1    
     2    1   82 1    
     3    1   83 1    
     4    1   84 1    
     5    2    3 2    
     6    2    4 am   BACKBONE|DICT|INTERRES
     7    4    5 1    
     8    4   85 1    
     9    5    6 1    
    10    5   80 1    
    11    5   86 1    
    12    6    7 1    
    13    6   87 1    
    14    6   88 1    
    15    7    8 1    
    16    8    9 1    
    17    8   89 1    
    18    8   90 1    
    19    9   10 ar   
    20    9   14 ar   
    21   10   11 ar   
    22   10   91 1    
    23   11   12 ar   
    24   11   58 1    
    25   12   13 ar   
    26   12   92 1    
    27   13   14 ar   
    28   13   15 1    
    29   14   93 1    
    30   15   16 1    
    31   15   94 1    
    32   15   95 1    
    33   16   17 1    
    34   17   18 1    
    35   17   96 1    
    36   17   97 1    
    37   18   19 1    
    38   18   22 1    
    39   18   98 1    
    40   19   20 am   BACKBONE|DICT|INTERRES
    41   19   21 2    
    42   20   99 1    
    43   20  100 1    
    44   22   23 am   BACKBONE|DICT|INTERRES
    45   22  101 1    
    46   23   24 2    
    47   23   25 1    
    48   25   26 1    
    49   25   27 1    
    50   25  102 1    
    51   26  103 1    
    52   26  104 1    
    53   26  105 1    
    54   27   28 am   BACKBONE|DICT|INTERRES
    55   27  106 1    
    56   28   29 2    
    57   28   30 1    
    58   30   31 1    
    59   30   32 1    
    60   30  107 1    
    61   31  108 1    
    62   31  109 1    
    63   31  110 1    
    64   32   33 am   BACKBONE|DICT|INTERRES
    65   32  111 1    
    66   33   34 2    
    67   33   35 1    
    68   35   36 1    
    69   35   37 1    
    70   35  112 1    
    71   36  113 1    
    72   36  114 1    
    73   36  115 1    
    74   37   38 am   BACKBONE|DICT|INTERRES
    75   37  116 1    
    76   38   39 2    
    77   38   40 1    
    78   40   41 1    
    79   40   42 1    
    80   40  117 1    
    81   41  118 1    
    82   41  119 1    
    83   41  120 1    
    84   42   43 am   BACKBONE|DICT|INTERRES
    85   42  121 1    
    86   43   44 2    
    87   43   45 1    
    88   45   46 1    
    89   45   47 1    
    90   45  122 1    
    91   46  123 1    
    92   46  124 1    
    93   46  125 1    
    94   47   48 am   BACKBONE|DICT|INTERRES
    95   47  126 1    
    96   48   49 2    
    97   48   50 1    
    98   50   51 1    
    99   50   52 1    
   100   50  127 1    
   101   51  128 1    
   102   51  129 1    
   103   51  130 1    
   104   52   53 am   BACKBONE|DICT|INTERRES
   105   52  131 1    
   106   53   54 2    
   107   53   55 1    
   108   55   56 1    
   109   55   59 1    
   110   55  132 1    
   111   56   57 1    
   112   56  133 1    
   113   56  134 1    
   114   57   58 1    
   115   58  135 1    
   116   58  136 1    
   117   59   60 am   BACKBONE|DICT|INTERRES
   118   59  137 1    
   119   60   61 2    
   120   60   62 1    
   121   62   63 1    
   122   62   64 1    
   123   62  138 1    
   124   63  139 1    
   125   63  140 1    
   126   63  141 1    
   127   64   65 am   BACKBONE|DICT|INTERRES
   128   64  142 1    
   129   65   66 2    
   130   65   67 1    
   131   67   68 1    
   132   67   69 1    
   133   67  143 1    
   134   68  144 1    
   135   68  145 1    
   136   68  146 1    
   137   69   70 am   BACKBONE|DICT|INTERRES
   138   69  147 1    
   139   70   71 2    
   140   70   72 1    
   141   72   73 1    
   142   72   74 1    
   143   72  148 1    
   144   73  149 1    
   145   73  150 1    
   146   73  151 1    
   147   74   75 am   BACKBONE|DICT|INTERRES
   148   74  152 1    
   149   75   76 2    
   150   75   77 1    
   151   77   78 1    
   152   77   79 1    
   153   77  153 1    
   154   78  154 1    
   155   78  155 1    
   156   78  156 1    
   157   79   80 am   BACKBONE|DICT|INTERRES
   158   79  157 1    
   159   80   81 2    
@<TRIPOS>SUBSTRUCTURE
     1 UNK         1 GROUP             0       ****    0 ROOT    
