@<TRIPOS>MOLECULE
3R207
157   159    1
SMALL
USER_CHARGES


@<TRIPOS>ATOM
      1 CA        -46.2660  -32.1360    7.0475 C.3       0 UNK        -0.1975 
      2 C         -46.4208  -31.4169    5.7156 C.2       0 UNK         0.4852 
      3 O         -45.4392  -31.2497    4.9915 O.2       0 UNK        -0.5216 
      4 N         -47.6459  -30.9820    5.3905 N.am      1 UNK        -0.4461 
      5 CA        -47.9848  -30.2720    4.1488 C.3       1 UNK         0.0864 
      6 C6        -49.4961  -30.4100    3.8202 C.3       14 UNK        -0.0898 
      7 S7        -50.5864  -29.4853    4.9583 S.3       14 UNK        -0.2598 
      8 C8        -51.5097  -30.8002    5.8023 C.3       14 UNK         0.0286 
      9 C9        -52.3515  -30.2101    6.9234 C.ar      14 UNK        -0.0844 
     10 C10       -52.0418  -30.4729    8.2605 C.ar      14 UNK        -0.0881 
     11 C11       -52.8106  -29.9206    9.2903 C.ar      14 UNK        -0.0643 
     12 C12       -53.8977  -29.0997    8.9740 C.ar      14 UNK        -0.0930 
     13 C13       -54.2151  -28.8272    7.6394 C.ar      14 UNK        -0.0827 
     14 C14       -53.4409  -29.3889    6.6208 C.ar      14 UNK        -0.1249 
     15 C15       -55.4026  -27.9451    7.2849 C.3       14 UNK         0.0141 
     16 S16       -55.0861  -26.1920    7.6642 S.3       14 UNK        -0.2313 
     17 C17       -55.8762  -26.0042    9.2986 C.3       14 UNK        -0.0915 
     18 CA        -54.8956  -25.5965   10.4294 C.3       13 UNK         0.0968 
     19 C         -54.4032  -24.1363   10.2813 C.2       13 UNK         0.5732 
     20 N         -53.1756  -23.9217    9.8314 N.am      13 UNK        -0.7310 
     21 O         -55.1404  -23.1911   10.5579 O.2       13 UNK        -0.5035 
     22 N         -55.5442  -25.7467   11.7342 N.am      13 UNK        -0.4233 
     23 C         -55.5500  -26.8551   12.4772 C.2       13 UNK         0.4989 
     24 O         -54.9787  -27.9014   12.1675 O.2       13 UNK        -0.4996 
     25 CA        -56.3674  -26.8028   13.7785 C.3       12 UNK         0.0216 
     26 CB        -57.6683  -27.6096   13.6335 C.3       12 UNK        -0.1964 
     27 N         -55.5909  -27.3279   14.9022 N.am      12 UNK        -0.4276 
     28 C         -54.5460  -26.6893   15.4407 C.2       12 UNK         0.5020 
     29 O         -54.2054  -25.5520   15.1024 O.2       12 UNK        -0.5489 
     30 CA        -53.7645  -27.4471   16.5283 C.3       11 UNK         0.0294 
     31 CB        -53.1007  -28.7148   15.9587 C.3       11 UNK        -0.2019 
     32 N         -52.7193  -26.5761   17.0599 N.am      11 UNK        -0.4493 
     33 C         -52.7662  -25.9258   18.2277 C.2       11 UNK         0.4932 
     34 O         -53.6413  -26.1104   19.0761 O.2       11 UNK        -0.5029 
     35 CA        -51.6730  -24.8661   18.4742 C.3       10 UNK         0.0280 
     36 CB        -51.4661  -24.5406   19.9695 C.3       10 UNK        -0.1976 
     37 N         -50.3998  -25.1675   17.8081 N.am      10 UNK        -0.4242 
     38 C         -49.5587  -26.1817   18.0687 C.2       10 UNK         0.5072 
     39 O         -49.7438  -27.0061   18.9655 O.2       10 UNK        -0.5224 
     40 CA        -48.2976  -26.3253   17.1888 C.3       9 UNK         0.0343 
     41 CB        -48.2664  -27.7027   16.5033 C.3       9 UNK        -0.2003 
     42 N         -48.1644  -25.2860   16.1642 N.am      9 UNK        -0.4272 
     43 C         -47.7284  -24.0367   16.3777 C.2       9 UNK         0.4988 
     44 O         -47.3077  -23.6349   17.4627 O.2       9 UNK        -0.5108 
     45 CA        -47.8194  -23.0553   15.1928 C.3       8 UNK         0.0248 
     46 CB        -46.5425  -23.1141   14.3403 C.3       8 UNK        -0.2001 
     47 N         -48.9940  -23.2779   14.3406 N.am      8 UNK        -0.4140 
     48 C         -50.2663  -23.1832   14.7559 C.2       8 UNK         0.5028 
     49 O         -50.5883  -22.8496   15.8962 O.2       8 UNK        -0.5428 
     50 CA        -51.3621  -23.5917   13.7573 C.3       7 UNK         0.0264 
     51 CB        -51.6771  -22.4443   12.7852 C.3       7 UNK        -0.1988 
     52 N         -51.0264  -24.8160   13.0212 N.am      7 UNK        -0.4454 
     53 C         -50.8736  -26.0147   13.6066 C.2       7 UNK         0.5027 
     54 O         -51.0423  -26.2085   14.8098 O.2       7 UNK        -0.5083 
     55 CA        -50.3651  -27.1774   12.7348 C.3       6 UNK         0.0844 
     56 C56       -51.5103  -27.8891   11.9774 C.3       14 UNK        -0.0967 
     57 S57       -50.9211  -29.4604   11.2653 S.3       14 UNK        -0.2604 
     58 C58       -52.4764  -30.2445   10.7388 C.3       14 UNK         0.0134 
     59 N         -49.2870  -26.7363   11.8482 N.am      6 UNK        -0.4116 
     60 C         -48.0592  -26.4005   12.2709 C.2       5 UNK         0.5034 
     61 O         -47.6960  -26.4714   13.4440 O.2       5 UNK        -0.5045 
     62 CA        -47.0826  -25.8458   11.2196 C.3       5 UNK         0.0224 
     63 CB        -46.2869  -26.9868   10.5672 C.3       5 UNK        -0.1978 
     64 N         -47.7468  -25.0538   10.1818 N.am      5 UNK        -0.4737 
     65 C         -48.4499  -23.9346   10.4070 C.2       4 UNK         0.5027 
     66 O         -48.5422  -23.4017   11.5119 O.2       4 UNK        -0.5211 
     67 CA        -49.2210  -23.3403    9.2167 C.3       4 UNK         0.0297 
     68 CB        -48.4345  -22.1754    8.5977 C.3       4 UNK        -0.1993 
     69 N         -49.5304  -24.3235    8.1740 N.am      4 UNK        -0.4486 
     70 C         -50.3295  -25.3889    8.3086 C.2       3 UNK         0.4961 
     71 O         -50.9326  -25.6564    9.3493 O.2       3 UNK        -0.5105 
     72 CA        -50.4462  -26.3318    7.0980 C.3       3 UNK         0.0299 
     73 CB        -51.3482  -25.7268    6.0065 C.3       3 UNK        -0.1972 
     74 N         -49.1551  -26.7833    6.5498 N.am      3 UNK        -0.4305 
     75 C         -48.1737  -26.0733    5.9661 C.2       2 UNK         0.5006 
     76 O         -48.2212  -24.8562    5.7842 O.2       2 UNK        -0.5106 
     77 CA        -46.9027  -26.8350    5.5460 C.3       2 UNK         0.0296 
     78 CB        -45.8171  -26.6881    6.6247 C.3       2 UNK        -0.2002 
     79 N         -47.1554  -28.2586    5.3145 N.am      2 UNK        -0.4032 
     80 C         -47.5351  -28.7892    4.1424 C.2       1 UNK         0.5000 
     81 O         -47.5782  -28.1516    3.0881 O.2       1 UNK        -0.5238 
     82 H82       -45.8932  -33.1471    6.8858 H         1 UNK         0.0889 
     83 H83       -47.2105  -32.2058    7.5869 H         1 UNK         0.0889 
     84 H84       -45.5528  -31.6071    7.6792 H         1 UNK         0.0889 
     85 H85       -48.4179  -31.1512    6.0193 H         1 UNK         0.3028 
     86 H86       -47.4363  -30.7553    3.3370 H         1 UNK         0.0864 
     87 H87       -49.7827  -31.4628    3.8086 H         1 UNK         0.0720 
     88 H88       -49.6897  -30.0469    2.8091 H         1 UNK         0.0720 
     89 H89       -50.8158  -31.5477    6.1893 H         1 UNK         0.0814 
     90 H90       -52.1555  -31.3108    5.0864 H         1 UNK         0.0814 
     91 H91       -51.2005  -31.1064    8.5068 H         1 UNK         0.1469 
     92 H92       -54.4995  -28.6753    9.7645 H         1 UNK         0.1381 
     93 H93       -53.6772  -29.1813    5.5859 H         1 UNK         0.1206 
     94 H94       -55.6210  -28.0218    6.2187 H         1 UNK         0.0813 
     95 H95       -56.2987  -28.3037    7.7922 H         1 UNK         0.0813 
     96 H96       -56.3638  -26.9425    9.5642 H         1 UNK         0.0638 
     97 H97       -56.6835  -25.2752    9.2069 H         1 UNK         0.0638 
     98 H98       -54.0237  -26.2527   10.3947 H         1 UNK         0.0568 
     99 H99       -52.8700  -22.9708    9.7096 H         1 UNK         0.3450 
    100 H100      -52.5441  -24.6853    9.6115 H         1 UNK         0.3450 
    101 H101      -55.9982  -24.9097   12.0745 H         1 UNK         0.2987 
    102 H102      -56.6310  -25.7654   13.9971 H         1 UNK         0.0766 
    103 H103      -58.2734  -27.5550   14.5387 H         1 UNK         0.0798 
    104 H104      -57.4709  -28.6618   13.4232 H         1 UNK         0.0798 
    105 H105      -58.2767  -27.2234   12.8144 H         1 UNK         0.0798 
    106 H106      -55.8007  -28.2696   15.2000 H         1 UNK         0.3198 
    107 H107      -54.4637  -27.7349   17.3163 H         1 UNK         0.0843 
    108 H108      -52.4453  -28.4873   15.1180 H         1 UNK         0.0831 
    109 H109      -53.8432  -29.4319   15.6075 H         1 UNK         0.0831 
    110 H110      -52.5020  -29.2195   16.7172 H         1 UNK         0.0831 
    111 H111      -52.0101  -26.3084   16.3786 H         1 UNK         0.3133 
    112 H112      -52.0399  -23.9564   17.9974 H         1 UNK         0.0566 
    113 H113      -50.6947  -23.7831   20.1076 H         1 UNK         0.0814 
    114 H114      -52.3827  -24.1520   20.4147 H         1 UNK         0.0814 
    115 H115      -51.1785  -25.4227   20.5420 H         1 UNK         0.0814 
    116 H116      -50.1734  -24.5466   17.0383 H         1 UNK         0.3091 
    117 H117      -47.4354  -26.2629   17.8557 H         1 UNK         0.0702 
    118 H118      -47.3595  -27.8313   15.9121 H         1 UNK         0.0785 
    119 H119      -49.1206  -27.8416   15.8403 H         1 UNK         0.0785 
    120 H120      -48.2896  -28.5090   17.2374 H         1 UNK         0.0785 
    121 H121      -48.4316  -25.5501   15.2226 H         1 UNK         0.2998 
    122 H122      -47.9055  -22.0483   15.6062 H         1 UNK         0.0697 
    123 H123      -46.3846  -24.1068   13.9195 H         1 UNK         0.0825 
    124 H124      -45.6636  -22.8717   14.9391 H         1 UNK         0.0825 
    125 H125      -46.5806  -22.4021   13.5155 H         1 UNK         0.0825 
    126 H126      -48.8195  -23.4930   13.3606 H         1 UNK         0.3029 
    127 H127      -52.2655  -23.7941   14.3373 H         1 UNK         0.0897 
    128 H128      -52.5703  -22.6591   12.2015 H         1 UNK         0.0792 
    129 H129      -51.8696  -21.5174   13.3273 H         1 UNK         0.0792 
    130 H130      -50.8566  -22.2517   12.0945 H         1 UNK         0.0792 
    131 H131      -50.8304  -24.7222   12.0349 H         1 UNK         0.3086 
    132 H132      -49.9360  -27.9068   13.4261 H         1 UNK         0.0583 
    133 H133      -52.3358  -28.1105   12.6563 H         1 UNK         0.1020 
    134 H134      -51.9212  -27.2617   11.1856 H         1 UNK         0.1020 
    135 H135      -52.3721  -31.3254   10.8420 H         1 UNK         0.0694 
    136 H136      -53.2894  -29.9548   11.4061 H         1 UNK         0.0694 
    137 H137      -49.5259  -26.6215   10.8722 H         1 UNK         0.2989 
    138 H138      -46.3805  -25.1905   11.7390 H         1 UNK         0.1055 
    139 H139      -45.7827  -27.5908   11.3232 H         1 UNK         0.0806 
    140 H140      -45.5157  -26.6007    9.9008 H         1 UNK         0.0806 
    141 H141      -46.9305  -27.6551    9.9936 H         1 UNK         0.0806 
    142 H142      -47.7206  -25.4124    9.2393 H         1 UNK         0.3061 
    143 H143      -50.1663  -22.9530    9.6017 H         1 UNK         0.0734 
    144 H144      -49.0055  -21.6866    7.8081 H         1 UNK         0.0832 
    145 H145      -48.2055  -21.4167    9.3477 H         1 UNK         0.0832 
    146 H146      -47.4880  -22.5091    8.1704 H         1 UNK         0.0832 
    147 H147      -49.0532  -24.2215    7.2794 H         1 UNK         0.3156 
    148 H148      -50.9433  -27.2348    7.4584 H         1 UNK         0.0589 
    149 H149      -50.9198  -24.8244    5.5700 H         1 UNK         0.0808 
    150 H150      -52.3236  -25.4590    6.4146 H         1 UNK         0.0808 
    151 H151      -51.5218  -26.4401    5.2007 H         1 UNK         0.0808 
    152 H152      -49.0072  -27.7784    6.6290 H         1 UNK         0.3098 
    153 H153      -46.5317  -26.3749    4.6275 H         1 UNK         0.0720 
    154 H154      -45.6081  -25.6375    6.8322 H         1 UNK         0.0791 
    155 H155      -44.8804  -27.1458    6.3058 H         1 UNK         0.0791 
    156 H156      -46.1142  -27.1556    7.5632 H         1 UNK         0.0791 
    157 H157      -47.1048  -28.8732    6.1132 H         1 UNK         0.3028 
@<TRIPOS>BOND
     1    1    2 1    
     2    1   82 1    
     3    1   83 1    
     4    1   84 1    
     5    2    3 2    
     6    2    4 am   BACKBONE|DICT|INTERRES
     7    4    5 1    
     8    4   85 1    
     9    5    6 1    
    10    5   80 1    
    11    5   86 1    
    12    6    7 1    
    13    6   87 1    
    14    6   88 1    
    15    7    8 1    
    16    8    9 1    
    17    8   89 1    
    18    8   90 1    
    19    9   10 ar   
    20    9   14 ar   
    21   10   11 ar   
    22   10   91 1    
    23   11   12 ar   
    24   11   58 1    
    25   12   13 ar   
    26   12   92 1    
    27   13   14 ar   
    28   13   15 1    
    29   14   93 1    
    30   15   16 1    
    31   15   94 1    
    32   15   95 1    
    33   16   17 1    
    34   17   18 1    
    35   17   96 1    
    36   17   97 1    
    37   18   19 1    
    38   18   22 1    
    39   18   98 1    
    40   19   20 am   BACKBONE|DICT|INTERRES
    41   19   21 2    
    42   20   99 1    
    43   20  100 1    
    44   22   23 am   BACKBONE|DICT|INTERRES
    45   22  101 1    
    46   23   24 2    
    47   23   25 1    
    48   25   26 1    
    49   25   27 1    
    50   25  102 1    
    51   26  103 1    
    52   26  104 1    
    53   26  105 1    
    54   27   28 am   BACKBONE|DICT|INTERRES
    55   27  106 1    
    56   28   29 2    
    57   28   30 1    
    58   30   31 1    
    59   30   32 1    
    60   30  107 1    
    61   31  108 1    
    62   31  109 1    
    63   31  110 1    
    64   32   33 am   BACKBONE|DICT|INTERRES
    65   32  111 1    
    66   33   34 2    
    67   33   35 1    
    68   35   36 1    
    69   35   37 1    
    70   35  112 1    
    71   36  113 1    
    72   36  114 1    
    73   36  115 1    
    74   37   38 am   BACKBONE|DICT|INTERRES
    75   37  116 1    
    76   38   39 2    
    77   38   40 1    
    78   40   41 1    
    79   40   42 1    
    80   40  117 1    
    81   41  118 1    
    82   41  119 1    
    83   41  120 1    
    84   42   43 am   BACKBONE|DICT|INTERRES
    85   42  121 1    
    86   43   44 2    
    87   43   45 1    
    88   45   46 1    
    89   45   47 1    
    90   45  122 1    
    91   46  123 1    
    92   46  124 1    
    93   46  125 1    
    94   47   48 am   BACKBONE|DICT|INTERRES
    95   47  126 1    
    96   48   49 2    
    97   48   50 1    
    98   50   51 1    
    99   50   52 1    
   100   50  127 1    
   101   51  128 1    
   102   51  129 1    
   103   51  130 1    
   104   52   53 am   BACKBONE|DICT|INTERRES
   105   52  131 1    
   106   53   54 2    
   107   53   55 1    
   108   55   56 1    
   109   55   59 1    
   110   55  132 1    
   111   56   57 1    
   112   56  133 1    
   113   56  134 1    
   114   57   58 1    
   115   58  135 1    
   116   58  136 1    
   117   59   60 am   BACKBONE|DICT|INTERRES
   118   59  137 1    
   119   60   61 2    
   120   60   62 1    
   121   62   63 1    
   122   62   64 1    
   123   62  138 1    
   124   63  139 1    
   125   63  140 1    
   126   63  141 1    
   127   64   65 am   BACKBONE|DICT|INTERRES
   128   64  142 1    
   129   65   66 2    
   130   65   67 1    
   131   67   68 1    
   132   67   69 1    
   133   67  143 1    
   134   68  144 1    
   135   68  145 1    
   136   68  146 1    
   137   69   70 am   BACKBONE|DICT|INTERRES
   138   69  147 1    
   139   70   71 2    
   140   70   72 1    
   141   72   73 1    
   142   72   74 1    
   143   72  148 1    
   144   73  149 1    
   145   73  150 1    
   146   73  151 1    
   147   74   75 am   BACKBONE|DICT|INTERRES
   148   74  152 1    
   149   75   76 2    
   150   75   77 1    
   151   77   78 1    
   152   77   79 1    
   153   77  153 1    
   154   78  154 1    
   155   78  155 1    
   156   78  156 1    
   157   79   80 am   BACKBONE|DICT|INTERRES
   158   79  157 1    
   159   80   81 2    
@<TRIPOS>SUBSTRUCTURE
     1 UNK         1 GROUP             0       ****    0 ROOT    
