@<TRIPOS>MOLECULE
3R207
157   159    1
SMALL
USER_CHARGES


@<TRIPOS>ATOM
      1 CA        -47.2907  -31.8163    5.0099 C.3       0 UNK        -0.1975 
      2 C         -47.8090  -30.5480    5.6709 C.2       0 UNK         0.4852 
      3 O         -47.1314  -29.9938    6.5375 O.2       0 UNK        -0.5216 
      4 N         -48.9948  -30.0797    5.2542 N.am      1 UNK        -0.4461 
      5 CA        -49.7378  -28.9049    5.7426 C.3       1 UNK         0.0864 
      6 C6        -50.1270  -28.9867    7.2442 C.3       14 UNK        -0.0898 
      7 S7        -51.3432  -30.3059    7.5959 S.3       14 UNK        -0.2598 
      8 C8        -52.9333  -29.5653    7.0817 C.3       14 UNK         0.0286 
      9 C9        -53.2828  -28.3186    7.8816 C.ar      14 UNK        -0.0844 
     10 C10       -52.9122  -27.0609    7.4031 C.ar      14 UNK        -0.0881 
     11 C11       -53.1518  -25.9135    8.1600 C.ar      14 UNK        -0.0643 
     12 C12       -53.8098  -26.0199    9.3873 C.ar      14 UNK        -0.0930 
     13 C13       -54.2285  -27.2688    9.8577 C.ar      14 UNK        -0.0827 
     14 C14       -53.9634  -28.4152    9.0990 C.ar      14 UNK        -0.1249 
     15 C15       -54.9754  -27.3672   11.1796 C.3       14 UNK         0.0141 
     16 S16       -53.8827  -27.8456   12.5566 S.3       14 UNK        -0.2313 
     17 C17       -53.6729  -29.6525   12.3391 C.3       14 UNK        -0.0915 
     18 CA        -54.9948  -30.4682   12.2555 C.3       13 UNK         0.0968 
     19 C         -54.7194  -31.9961   12.1618 C.2       13 UNK         0.5732 
     20 N         -55.2527  -32.8256   13.0510 N.am      13 UNK        -0.7310 
     21 O         -54.0194  -32.4400   11.2552 O.2       13 UNK        -0.5035 
     22 N         -55.9336  -30.0846   13.3209 N.am      13 UNK        -0.4233 
     23 C         -57.2657  -30.0457   13.1959 C.2       13 UNK         0.4989 
     24 O         -57.8701  -30.4024   12.1839 O.2       13 UNK        -0.4996 
     25 CA        -58.0704  -29.5125   14.3975 C.3       12 UNK         0.0216 
     26 CB        -58.7521  -30.6718   15.1436 C.3       12 UNK        -0.1964 
     27 N         -57.2738  -28.7308   15.3516 N.am      12 UNK        -0.4276 
     28 C         -56.7629  -27.5126   15.1218 C.2       12 UNK         0.5020 
     29 O         -56.9367  -26.8871   14.0743 O.2       12 UNK        -0.5489 
     30 CA        -55.9222  -26.8851   16.2456 C.3       11 UNK         0.0294 
     31 CB        -55.3823  -27.9021   17.2769 C.3       11 UNK        -0.2019 
     32 N         -54.8051  -26.1343   15.6716 N.am      11 UNK        -0.4493 
     33 C         -54.2628  -25.0407   16.2207 C.2       11 UNK         0.4932 
     34 O         -54.7048  -24.5011   17.2378 O.2       11 UNK        -0.5029 
     35 CA        -52.9986  -24.4762   15.5360 C.3       10 UNK         0.0280 
     36 CB        -52.3710  -23.3032   16.3165 C.3       10 UNK        -0.1976 
     37 N         -51.9657  -25.4831   15.2509 N.am      10 UNK        -0.4242 
     38 C         -51.4655  -26.4095   16.0867 C.2       10 UNK         0.5072 
     39 O         -51.8331  -26.5743   17.2507 O.2       10 UNK        -0.5224 
     40 CA        -50.3466  -27.3040   15.5309 C.3       9 UNK         0.0343 
     41 CB        -50.8389  -28.1851   14.3749 C.3       9 UNK        -0.2003 
     42 N         -49.1847  -26.5266   15.1037 N.am      9 UNK        -0.4272 
     43 C         -48.2936  -25.9945   15.9524 C.2       9 UNK         0.4988 
     44 O         -48.3497  -26.1175   17.1768 O.2       9 UNK        -0.5108 
     45 CA        -47.1268  -25.2068   15.3377 C.3       8 UNK         0.0248 
     46 CB        -46.0443  -26.1671   14.8193 C.3       8 UNK        -0.2001 
     47 N         -47.5467  -24.2964   14.2702 N.am      8 UNK        -0.4140 
     48 C         -48.3073  -23.2091   14.4658 C.2       8 UNK         0.5028 
     49 O         -48.7110  -22.8441   15.5706 O.2       8 UNK        -0.5428 
     50 CA        -48.6757  -22.3751   13.2283 C.3       7 UNK         0.0264 
     51 CB        -47.5328  -21.4144   12.8625 C.3       7 UNK        -0.1988 
     52 N         -49.0210  -23.1832   12.0591 N.am      7 UNK        -0.4454 
     53 C         -50.0926  -23.9867   11.9658 C.2       7 UNK         0.5027 
     54 O         -50.9168  -24.1556   12.8649 O.2       7 UNK        -0.5083 
     55 CA        -50.2479  -24.7494   10.6347 C.3       6 UNK         0.0844 
     56 C56       -50.7209  -23.7485    9.5441 C.3       14 UNK        -0.0967 
     57 S57       -50.8672  -24.4269    7.8609 S.3       14 UNK        -0.2604 
     58 C58       -52.6661  -24.5721    7.6457 C.3       14 UNK         0.0134 
     59 N         -49.0147  -25.4789   10.3014 N.am      6 UNK        -0.4116 
     60 C         -48.4053  -26.3672   11.1083 C.2       5 UNK         0.5034 
     61 O         -48.8549  -26.7416   12.1916 O.2       5 UNK        -0.5045 
     62 CA        -47.0182  -26.8717   10.6849 C.3       5 UNK         0.0224 
     63 CB        -47.1205  -28.0730    9.7318 C.3       5 UNK        -0.1978 
     64 N         -46.2118  -25.8088   10.0837 N.am      5 UNK        -0.4737 
     65 C         -45.6783  -24.7889   10.7709 C.2       4 UNK         0.5027 
     66 O         -45.7769  -24.6634   11.9899 O.2       4 UNK        -0.5211 
     67 CA        -44.9457  -23.7058    9.9614 C.3       4 UNK         0.0297 
     68 CB        -43.4921  -24.1243    9.6908 C.3       4 UNK        -0.1993 
     69 N         -45.6134  -23.3990    8.6954 N.am      4 UNK        -0.4486 
     70 C         -46.8290  -22.8431    8.5990 C.2       3 UNK         0.4961 
     71 O         -47.4879  -22.4655    9.5693 O.2       3 UNK        -0.5105 
     72 CA        -47.4284  -22.7349    7.1839 C.3       3 UNK         0.0299 
     73 CB        -46.9928  -21.4202    6.5180 C.3       3 UNK        -0.1972 
     74 N         -47.1164  -23.8647    6.2934 N.am      3 UNK        -0.4305 
     75 C         -47.3550  -25.1559    6.5683 C.2       2 UNK         0.5006 
     76 O         -47.7814  -25.5536    7.6522 O.2       2 UNK        -0.5106 
     77 CA        -46.9951  -26.1805    5.4800 C.3       2 UNK         0.0296 
     78 CB        -45.4981  -26.5245    5.5489 C.3       2 UNK        -0.2002 
     79 N         -47.7663  -27.4167    5.6334 N.am      2 UNK        -0.4032 
     80 C         -49.0780  -27.5487    5.4004 C.2       1 UNK         0.5000 
     81 O         -49.7714  -26.6572    4.9066 O.2       1 UNK        -0.5238 
     82 H82       -47.1382  -32.5924    5.7594 H         1 UNK         0.0889 
     83 H83       -46.3361  -31.6213    4.5219 H         1 UNK         0.0889 
     84 H84       -47.9832  -32.1999    4.2609 H         1 UNK         0.0889 
     85 H85       -49.4675  -30.5849    4.5174 H         1 UNK         0.3028 
     86 H86       -50.6666  -28.9104    5.1706 H         1 UNK         0.0864 
     87 H87       -50.5046  -28.0353    7.6166 H         1 UNK         0.0720 
     88 H88       -49.2470  -29.1878    7.8539 H         1 UNK         0.0720 
     89 H89       -53.7206  -30.3104    7.2050 H         1 UNK         0.0814 
     90 H90       -52.9028  -29.3370    6.0155 H         1 UNK         0.0814 
     91 H91       -52.3888  -26.9745    6.4601 H         1 UNK         0.1469 
     92 H92       -53.9946  -25.1318    9.9760 H         1 UNK         0.1381 
     93 H93       -54.2704  -29.3862    9.4592 H         1 UNK         0.1206 
     94 H94       -55.4158  -26.4002   11.4273 H         1 UNK         0.0813 
     95 H95       -55.8208  -28.0481   11.0922 H         1 UNK         0.0813 
     96 H96       -53.0758  -30.0095   13.1791 H         1 UNK         0.0638 
     97 H97       -53.0599  -29.8194   11.4521 H         1 UNK         0.0638 
     98 H98       -55.4615  -30.2301   11.3000 H         1 UNK         0.0568 
     99 H99       -55.8367  -32.4750   13.7924 H         1 UNK         0.3450 
    100 H100      -55.0708  -33.8139   12.9742 H         1 UNK         0.3450 
    101 H101      -55.5186  -29.7816   14.1878 H         1 UNK         0.2987 
    102 H102      -58.8490  -28.8596   13.9968 H         1 UNK         0.0766 
    103 H103      -59.3782  -31.2571   14.4683 H         1 UNK         0.0798 
    104 H104      -59.3982  -30.3053   15.9417 H         1 UNK         0.0798 
    105 H105      -58.0246  -31.3538   15.5856 H         1 UNK         0.0798 
    106 H106      -57.0909  -29.1619   16.2467 H         1 UNK         0.3198 
    107 H107      -56.5899  -26.1924   16.7627 H         1 UNK         0.0843 
    108 H108      -54.7629  -28.6668   16.8062 H         1 UNK         0.0831 
    109 H109      -56.1891  -28.4006   17.8151 H         1 UNK         0.0831 
    110 H110      -54.7684  -27.4071   18.0301 H         1 UNK         0.0831 
    111 H111      -54.4418  -26.4836   14.7936 H         1 UNK         0.3133 
    112 H112      -53.3230  -24.0911   14.5683 H         1 UNK         0.0566 
    113 H113      -52.0153  -23.6186   17.2980 H         1 UNK         0.0814 
    114 H114      -53.0922  -22.4996   16.4697 H         1 UNK         0.0814 
    115 H115      -51.5251  -22.8788   15.7752 H         1 UNK         0.0814 
    116 H116      -51.5502  -25.3996   14.3278 H         1 UNK         0.3091 
    117 H117      -50.0333  -27.9745   16.3344 H         1 UNK         0.0702 
    118 H118      -50.0752  -28.9009   14.0705 H         1 UNK         0.0785 
    119 H119      -51.1038  -27.5941   13.4979 H         1 UNK         0.0785 
    120 H120      -51.7193  -28.7546   14.6729 H         1 UNK         0.0785 
    121 H121      -49.0532  -26.4101   14.1021 H         1 UNK         0.2998 
    122 H122      -46.6834  -24.6019   16.1316 H         1 UNK         0.0697 
    123 H123      -45.1635  -25.6237   14.4769 H         1 UNK         0.0825 
    124 H124      -46.4077  -26.7742   13.9899 H         1 UNK         0.0825 
    125 H125      -45.7172  -26.8492   15.6052 H         1 UNK         0.0825 
    126 H126      -47.1812  -24.4835   13.3404 H         1 UNK         0.3029 
    127 H127      -49.5536  -21.7785   13.4862 H         1 UNK         0.0897 
    128 H128      -46.6339  -21.9536   12.5603 H         1 UNK         0.0792 
    129 H129      -47.2665  -20.7819   13.7104 H         1 UNK         0.0792 
    130 H130      -47.8167  -20.7550   12.0419 H         1 UNK         0.0792 
    131 H131      -48.4109  -23.0927   11.2508 H         1 UNK         0.3086 
    132 H132      -51.0304  -25.4995   10.7684 H         1 UNK         0.0583 
    133 H133      -51.6793  -23.3148    9.8351 H         1 UNK         0.1020 
    134 H134      -50.0368  -22.9022    9.4725 H         1 UNK         0.1020 
    135 H135      -53.1843  -23.7453    8.1333 H         1 UNK         0.0694 
    136 H136      -52.8974  -24.4901    6.5827 H         1 UNK         0.0694 
    137 H137      -48.5971  -25.2829    9.3954 H         1 UNK         0.2989 
    138 H138      -46.5059  -27.2111   11.5876 H         1 UNK         0.1055 
    139 H139      -46.1364  -28.4765    9.4937 H         1 UNK         0.0806 
    140 H140      -47.6071  -27.8118    8.7939 H         1 UNK         0.0806 
    141 H141      -47.7005  -28.8792   10.1830 H         1 UNK         0.0806 
    142 H142      -46.1968  -25.7761    9.0724 H         1 UNK         0.3061 
    143 H143      -44.9329  -22.7948   10.5640 H         1 UNK         0.0734 
    144 H144      -43.4358  -25.0209    9.0721 H         1 UNK         0.0832 
    145 H145      -42.9373  -23.3321    9.1879 H         1 UNK         0.0832 
    146 H146      -42.9704  -24.3403   10.6244 H         1 UNK         0.0832 
    147 H147      -45.1452  -23.6773    7.8456 H         1 UNK         0.3156 
    148 H148      -48.5130  -22.7075    7.2970 H         1 UNK         0.0589 
    149 H149      -47.5045  -21.2671    5.5677 H         1 UNK         0.0808 
    150 H150      -45.9186  -21.3974    6.3303 H         1 UNK         0.0808 
    151 H151      -47.2310  -20.5646    7.1519 H         1 UNK         0.0808 
    152 H152      -46.7430  -23.6285    5.3851 H         1 UNK         0.3098 
    153 H153      -47.2209  -25.7503    4.5022 H         1 UNK         0.0720 
    154 H154      -44.8807  -25.6365    5.4072 H         1 UNK         0.0791 
    155 H155      -45.2201  -27.2369    4.7718 H         1 UNK         0.0791 
    156 H156      -45.2293  -26.9605    6.5123 H         1 UNK         0.0791 
    157 H157      -47.2959  -28.2126    6.0581 H         1 UNK         0.3028 
@<TRIPOS>BOND
     1    1    2 1    
     2    1   82 1    
     3    1   83 1    
     4    1   84 1    
     5    2    3 2    
     6    2    4 am   BACKBONE|DICT|INTERRES
     7    4    5 1    
     8    4   85 1    
     9    5    6 1    
    10    5   80 1    
    11    5   86 1    
    12    6    7 1    
    13    6   87 1    
    14    6   88 1    
    15    7    8 1    
    16    8    9 1    
    17    8   89 1    
    18    8   90 1    
    19    9   10 ar   
    20    9   14 ar   
    21   10   11 ar   
    22   10   91 1    
    23   11   12 ar   
    24   11   58 1    
    25   12   13 ar   
    26   12   92 1    
    27   13   14 ar   
    28   13   15 1    
    29   14   93 1    
    30   15   16 1    
    31   15   94 1    
    32   15   95 1    
    33   16   17 1    
    34   17   18 1    
    35   17   96 1    
    36   17   97 1    
    37   18   19 1    
    38   18   22 1    
    39   18   98 1    
    40   19   20 am   BACKBONE|DICT|INTERRES
    41   19   21 2    
    42   20   99 1    
    43   20  100 1    
    44   22   23 am   BACKBONE|DICT|INTERRES
    45   22  101 1    
    46   23   24 2    
    47   23   25 1    
    48   25   26 1    
    49   25   27 1    
    50   25  102 1    
    51   26  103 1    
    52   26  104 1    
    53   26  105 1    
    54   27   28 am   BACKBONE|DICT|INTERRES
    55   27  106 1    
    56   28   29 2    
    57   28   30 1    
    58   30   31 1    
    59   30   32 1    
    60   30  107 1    
    61   31  108 1    
    62   31  109 1    
    63   31  110 1    
    64   32   33 am   BACKBONE|DICT|INTERRES
    65   32  111 1    
    66   33   34 2    
    67   33   35 1    
    68   35   36 1    
    69   35   37 1    
    70   35  112 1    
    71   36  113 1    
    72   36  114 1    
    73   36  115 1    
    74   37   38 am   BACKBONE|DICT|INTERRES
    75   37  116 1    
    76   38   39 2    
    77   38   40 1    
    78   40   41 1    
    79   40   42 1    
    80   40  117 1    
    81   41  118 1    
    82   41  119 1    
    83   41  120 1    
    84   42   43 am   BACKBONE|DICT|INTERRES
    85   42  121 1    
    86   43   44 2    
    87   43   45 1    
    88   45   46 1    
    89   45   47 1    
    90   45  122 1    
    91   46  123 1    
    92   46  124 1    
    93   46  125 1    
    94   47   48 am   BACKBONE|DICT|INTERRES
    95   47  126 1    
    96   48   49 2    
    97   48   50 1    
    98   50   51 1    
    99   50   52 1    
   100   50  127 1    
   101   51  128 1    
   102   51  129 1    
   103   51  130 1    
   104   52   53 am   BACKBONE|DICT|INTERRES
   105   52  131 1    
   106   53   54 2    
   107   53   55 1    
   108   55   56 1    
   109   55   59 1    
   110   55  132 1    
   111   56   57 1    
   112   56  133 1    
   113   56  134 1    
   114   57   58 1    
   115   58  135 1    
   116   58  136 1    
   117   59   60 am   BACKBONE|DICT|INTERRES
   118   59  137 1    
   119   60   61 2    
   120   60   62 1    
   121   62   63 1    
   122   62   64 1    
   123   62  138 1    
   124   63  139 1    
   125   63  140 1    
   126   63  141 1    
   127   64   65 am   BACKBONE|DICT|INTERRES
   128   64  142 1    
   129   65   66 2    
   130   65   67 1    
   131   67   68 1    
   132   67   69 1    
   133   67  143 1    
   134   68  144 1    
   135   68  145 1    
   136   68  146 1    
   137   69   70 am   BACKBONE|DICT|INTERRES
   138   69  147 1    
   139   70   71 2    
   140   70   72 1    
   141   72   73 1    
   142   72   74 1    
   143   72  148 1    
   144   73  149 1    
   145   73  150 1    
   146   73  151 1    
   147   74   75 am   BACKBONE|DICT|INTERRES
   148   74  152 1    
   149   75   76 2    
   150   75   77 1    
   151   77   78 1    
   152   77   79 1    
   153   77  153 1    
   154   78  154 1    
   155   78  155 1    
   156   78  156 1    
   157   79   80 am   BACKBONE|DICT|INTERRES
   158   79  157 1    
   159   80   81 2    
@<TRIPOS>SUBSTRUCTURE
     1 UNK         1 GROUP             0       ****    0 ROOT    
