@<TRIPOS>MOLECULE
3R207
157   159    1
SMALL
USER_CHARGES


@<TRIPOS>ATOM
      1 CA        -46.5004  -31.6108    5.8100 C.3       0 UNK        -0.1975 
      2 C         -47.4997  -30.4680    5.9053 C.2       0 UNK         0.4852 
      3 O         -47.6095  -29.8408    6.9585 O.2       0 UNK        -0.5216 
      4 N         -48.2154  -30.1806    4.8085 N.am      1 UNK        -0.4461 
      5 CA        -49.2521  -29.1473    4.6491 C.3       1 UNK         0.0864 
      6 C6        -50.4312  -29.3033    5.6461 C.3       14 UNK        -0.0898 
      7 S7        -51.9989  -28.6799    4.9574 S.3       14 UNK        -0.2598 
      8 C8        -53.2002  -29.4141    6.1087 C.3       14 UNK         0.0286 
      9 C9        -53.0956  -28.8062    7.4994 C.ar      14 UNK        -0.0844 
     10 C10       -53.5615  -27.5101    7.7332 C.ar      14 UNK        -0.0881 
     11 C11       -53.4916  -26.9426    9.0085 C.ar      14 UNK        -0.0643 
     12 C12       -52.9796  -27.7085   10.0640 C.ar      14 UNK        -0.0930 
     13 C13       -52.4891  -28.9982    9.8420 C.ar      14 UNK        -0.0827 
     14 C14       -52.5429  -29.5381    8.5533 C.ar      14 UNK        -0.1249 
     15 C15       -51.8693  -29.7948   10.9829 C.3       14 UNK         0.0141 
     16 S16       -52.7319  -31.3782   11.2566 S.3       14 UNK        -0.2313 
     17 C17       -53.3912  -31.2133   12.9490 C.3       14 UNK        -0.0915 
     18 CA        -54.9079  -30.8892   12.9657 C.3       13 UNK         0.0968 
     19 C         -55.5286  -31.1713   14.3662 C.2       13 UNK         0.5732 
     20 N         -56.0899  -30.1896   15.0621 N.am      13 UNK        -0.7310 
     21 O         -55.5119  -32.3108   14.8257 O.2       13 UNK        -0.5035 
     22 N         -55.1679  -29.5357   12.4538 N.am      13 UNK        -0.4233 
     23 C         -56.3232  -29.1106   11.9341 C.2       13 UNK         0.4989 
     24 O         -57.3050  -29.8342   11.7577 O.2       13 UNK        -0.4996 
     25 CA        -56.3966  -27.6072   11.5998 C.3       12 UNK         0.0216 
     26 CB        -57.6426  -27.2420   10.7719 C.3       12 UNK        -0.1964 
     27 N         -56.3611  -26.7740   12.8063 N.am      12 UNK        -0.4276 
     28 C         -55.2809  -26.5556   13.5667 C.2       12 UNK         0.5020 
     29 O         -54.1660  -27.0322   13.3307 O.2       12 UNK        -0.5489 
     30 CA        -55.4920  -25.7131   14.8290 C.3       11 UNK         0.0294 
     31 CB        -56.1958  -26.5458   15.9205 C.3       11 UNK        -0.2019 
     32 N         -54.1803  -25.2735   15.2886 N.am      11 UNK        -0.4493 
     33 C         -53.9126  -24.3909   16.2571 C.2       11 UNK         0.4932 
     34 O         -54.7824  -23.7833   16.8835 O.2       11 UNK        -0.5029 
     35 CA        -52.4250  -24.1236   16.5641 C.3       10 UNK         0.0280 
     36 CB        -52.1685  -23.7739   18.0451 C.3       10 UNK        -0.1976 
     37 N         -51.5324  -25.1940   16.1047 N.am      10 UNK        -0.4242 
     38 C         -51.4458  -26.4565   16.5498 C.2       10 UNK         0.5072 
     39 O         -52.1064  -26.9127   17.4837 O.2       10 UNK        -0.5224 
     40 CA        -50.4530  -27.3745   15.8132 C.3       9 UNK         0.0343 
     41 CB        -51.1412  -28.0601   14.6213 C.3       9 UNK        -0.2003 
     42 N         -49.2552  -26.6693   15.3461 N.am      9 UNK        -0.4272 
     43 C         -48.3111  -26.1623   16.1533 C.2       9 UNK         0.4988 
     44 O         -48.3063  -26.3045   17.3768 O.2       9 UNK        -0.5108 
     45 CA        -47.1874  -25.3467   15.4905 C.3       8 UNK         0.0248 
     46 CB        -46.1153  -26.2758   14.8988 C.3       8 UNK        -0.2001 
     47 N         -47.6806  -24.4307   14.4582 N.am      8 UNK        -0.4140 
     48 C         -48.4700  -23.3718   14.6947 C.2       8 UNK         0.5028 
     49 O         -48.8131  -23.0094   15.8202 O.2       8 UNK        -0.5428 
     50 CA        -48.9933  -22.5980   13.4713 C.3       7 UNK         0.0264 
     51 CB        -47.9543  -21.5755   12.9854 C.3       7 UNK        -0.1988 
     52 N         -49.3907  -23.4690   12.3612 N.am      7 UNK        -0.4454 
     53 C         -50.3736  -24.3796   12.4249 C.2       7 UNK         0.5027 
     54 O         -51.0691  -24.5553   13.4244 O.2       7 UNK        -0.5083 
     55 CA        -50.5782  -25.2891   11.1951 C.3       6 UNK         0.0844 
     56 C56       -51.4321  -24.6095   10.0952 C.3       14 UNK        -0.0967 
     57 S57       -53.2028  -24.5685   10.5509 S.3       14 UNK        -0.2604 
     58 C58       -53.9951  -25.5110    9.2011 C.3       14 UNK         0.0134 
     59 N         -49.3075  -25.8083   10.6846 N.am      6 UNK        -0.4116 
     60 C         -48.4885  -26.6080   11.3846 C.2       5 UNK         0.5034 
     61 O         -48.7528  -27.0594   12.4988 O.2       5 UNK        -0.5045 
     62 CA        -47.1123  -26.8979   10.7692 C.3       5 UNK         0.0224 
     63 CB        -47.1878  -28.0615    9.7687 C.3       5 UNK        -0.1978 
     64 N         -46.5449  -25.7074   10.1296 N.am      5 UNK        -0.4737 
     65 C         -46.1115  -24.6339   10.8075 C.2       4 UNK         0.5027 
     66 O         -46.0933  -24.5679   12.0352 O.2       4 UNK        -0.5211 
     67 CA        -45.6633  -23.4145    9.9840 C.3       4 UNK         0.0297 
     68 CB        -44.1850  -23.5491    9.5872 C.3       4 UNK        -0.1993 
     69 N         -46.4760  -23.2047    8.7841 N.am      4 UNK        -0.4486 
     70 C         -47.7850  -22.9107    8.7837 C.2       3 UNK         0.4961 
     71 O         -48.4459  -22.7215    9.8033 O.2       3 UNK        -0.5105 
     72 CA        -48.4870  -22.8891    7.4143 C.3       3 UNK         0.0299 
     73 CB        -48.4066  -21.4890    6.7866 C.3       3 UNK        -0.1972 
     74 N         -47.9371  -23.8835    6.4857 N.am      3 UNK        -0.4305 
     75 C         -47.9883  -25.2070    6.6885 C.2       2 UNK         0.5006 
     76 O         -48.5612  -25.7291    7.6483 O.2       2 UNK        -0.5106 
     77 CA        -47.1745  -26.0718    5.7178 C.3       2 UNK         0.0296 
     78 CB        -45.7453  -26.2639    6.2536 C.3       2 UNK        -0.2002 
     79 N         -47.7910  -27.3846    5.5565 N.am      2 UNK        -0.4032 
     80 C         -48.6995  -27.7032    4.6291 C.2       1 UNK         0.5000 
     81 O         -49.0818  -26.9202    3.7565 O.2       1 UNK        -0.5238 
     82 H82       -46.5033  -32.0755    4.8242 H         1 UNK         0.0889 
     83 H83       -46.7381  -32.3771    6.5473 H         1 UNK         0.0889 
     84 H84       -45.4936  -31.2453    6.0106 H         1 UNK         0.0889 
     85 H85       -48.0397  -30.7209    3.9722 H         1 UNK         0.3028 
     86 H86       -49.6423  -29.3304    3.6462 H         1 UNK         0.0864 
     87 H87       -50.5774  -30.3580    5.8844 H         1 UNK         0.0720 
     88 H88       -50.2247  -28.8071    6.5970 H         1 UNK         0.0720 
     89 H89       -53.0604  -30.4957    6.1430 H         1 UNK         0.0814 
     90 H90       -54.2064  -29.2507    5.7202 H         1 UNK         0.0814 
     91 H91       -53.9742  -26.9397    6.9120 H         1 UNK         0.1469 
     92 H92       -52.9535  -27.2969   11.0618 H         1 UNK         0.1381 
     93 H93       -52.1639  -30.5353    8.3759 H         1 UNK         0.1206 
     94 H94       -50.8268  -30.0023   10.7379 H         1 UNK         0.0813 
     95 H95       -51.8505  -29.2036   11.8989 H         1 UNK         0.0813 
     96 H96       -53.1975  -32.1677   13.4422 H         1 UNK         0.0638 
     97 H97       -52.8264  -30.4699   13.5124 H         1 UNK         0.0638 
     98 H98       -55.4000  -31.5932   12.2920 H         1 UNK         0.0568 
     99 H99       -56.1209  -29.2566   14.6897 H         1 UNK         0.3450 
    100 H100      -56.4924  -30.3937   15.9630 H         1 UNK         0.3450 
    101 H101      -54.4572  -28.8350   12.6411 H         1 UNK         0.2987 
    102 H102      -55.5235  -27.3691   10.9943 H         1 UNK         0.0766 
    103 H103      -57.6308  -26.1915   10.4805 H         1 UNK         0.0798 
    104 H104      -58.5656  -27.4287   11.3222 H         1 UNK         0.0798 
    105 H105      -57.6850  -27.8295    9.8537 H         1 UNK         0.0798 
    106 H106      -57.2418  -26.3712   13.0937 H         1 UNK         0.3198 
    107 H107      -56.0916  -24.8366   14.5751 H         1 UNK         0.0843 
    108 H108      -55.5850  -27.3943   16.2320 H         1 UNK         0.0831 
    109 H109      -57.1513  -26.9379   15.5703 H         1 UNK         0.0831 
    110 H110      -56.4069  -25.9483   16.8072 H         1 UNK         0.0831 
    111 H111      -53.4146  -25.7036   14.7804 H         1 UNK         0.3133 
    112 H112      -52.1532  -23.2485   15.9721 H         1 UNK         0.0566 
    113 H113      -51.1102  -23.5871   18.2286 H         1 UNK         0.0814 
    114 H114      -52.7104  -22.8725   18.3338 H         1 UNK         0.0814 
    115 H115      -52.4909  -24.5730   18.7130 H         1 UNK         0.0814 
    116 H116      -51.0153  -24.9671   15.2578 H         1 UNK         0.3091 
    117 H117      -50.1366  -28.1490   16.5150 H         1 UNK         0.0702 
    118 H118      -52.0467  -28.5795   14.9380 H         1 UNK         0.0785 
    119 H119      -50.4866  -28.7972   14.1561 H         1 UNK         0.0785 
    120 H120      -51.4313  -27.3408   13.8544 H         1 UNK         0.0785 
    121 H121      -49.1451  -26.5730   14.3400 H         1 UNK         0.2998 
    122 H122      -46.7156  -24.7422   16.2680 H         1 UNK         0.0697 
    123 H123      -46.5153  -26.8972   14.0975 H         1 UNK         0.0825 
    124 H124      -45.7147  -26.9448   15.6615 H         1 UNK         0.0825 
    125 H125      -45.2778  -25.7073   14.4940 H         1 UNK         0.0825 
    126 H126      -47.3701  -24.6050   13.5060 H         1 UNK         0.3029 
    127 H127      -49.8839  -22.0507   13.7880 H         1 UNK         0.0897 
    128 H128      -48.3369  -20.9850   12.1525 H         1 UNK         0.0792 
    129 H129      -47.0342  -22.0592   12.6581 H         1 UNK         0.0792 
    130 H130      -47.6905  -20.8798   13.7830 H         1 UNK         0.0792 
    131 H131      -48.9057  -23.3341   11.4756 H         1 UNK         0.3086 
    132 H132      -51.1212  -26.1642   11.5528 H         1 UNK         0.0583 
    133 H133      -51.0878  -23.5937    9.8922 H         1 UNK         0.1020 
    134 H134      -51.3237  -25.1498    9.1530 H         1 UNK         0.1020 
    135 H135      -55.0691  -25.5430    9.3874 H         1 UNK         0.0694 
    136 H136      -53.8607  -24.9447    8.2781 H         1 UNK         0.0694 
    137 H137      -49.0214  -25.5129    9.7585 H         1 UNK         0.2989 
    138 H138      -46.4444  -27.1958   11.5806 H         1 UNK         0.1055 
    139 H139      -47.5434  -28.9695   10.2574 H         1 UNK         0.0806 
    140 H140      -46.2104  -28.2878    9.3426 H         1 UNK         0.0806 
    141 H141      -47.8722  -27.8548    8.9463 H         1 UNK         0.0806 
    142 H142      -46.5831  -25.6665    9.1220 H         1 UNK         0.3061 
    143 H143      -45.7682  -22.5303   10.6158 H         1 UNK         0.0734 
    144 H144      -43.8280  -22.6562    9.0738 H         1 UNK         0.0832 
    145 H145      -43.5572  -23.6851   10.4692 H         1 UNK         0.0832 
    146 H146      -44.0156  -24.4052    8.9328 H         1 UNK         0.0832 
    147 H147      -46.0151  -23.3250    7.8946 H         1 UNK         0.3156 
    148 H148      -49.5395  -23.1302    7.5789 H         1 UNK         0.0589 
    149 H149      -47.3773  -21.1951    6.5772 H         1 UNK         0.0808 
    150 H150      -48.9675  -21.4397    5.8531 H         1 UNK         0.0808 
    151 H151      -48.8296  -20.7383    7.4560 H         1 UNK         0.0808 
    152 H152      -47.4481  -23.5299    5.6752 H         1 UNK         0.3098 
    153 H153      -47.1202  -25.5697    4.7493 H         1 UNK         0.0720 
    154 H154      -45.1442  -26.8574    5.5643 H         1 UNK         0.0791 
    155 H155      -45.7383  -26.7713    7.2191 H         1 UNK         0.0791 
    156 H156      -45.2369  -25.3073    6.3801 H         1 UNK         0.0791 
    157 H157      -47.5871  -28.0874    6.2630 H         1 UNK         0.3028 
@<TRIPOS>BOND
     1    1    2 1    
     2    1   82 1    
     3    1   83 1    
     4    1   84 1    
     5    2    3 2    
     6    2    4 am   BACKBONE|DICT|INTERRES
     7    4    5 1    
     8    4   85 1    
     9    5    6 1    
    10    5   80 1    
    11    5   86 1    
    12    6    7 1    
    13    6   87 1    
    14    6   88 1    
    15    7    8 1    
    16    8    9 1    
    17    8   89 1    
    18    8   90 1    
    19    9   10 ar   
    20    9   14 ar   
    21   10   11 ar   
    22   10   91 1    
    23   11   12 ar   
    24   11   58 1    
    25   12   13 ar   
    26   12   92 1    
    27   13   14 ar   
    28   13   15 1    
    29   14   93 1    
    30   15   16 1    
    31   15   94 1    
    32   15   95 1    
    33   16   17 1    
    34   17   18 1    
    35   17   96 1    
    36   17   97 1    
    37   18   19 1    
    38   18   22 1    
    39   18   98 1    
    40   19   20 am   BACKBONE|DICT|INTERRES
    41   19   21 2    
    42   20   99 1    
    43   20  100 1    
    44   22   23 am   BACKBONE|DICT|INTERRES
    45   22  101 1    
    46   23   24 2    
    47   23   25 1    
    48   25   26 1    
    49   25   27 1    
    50   25  102 1    
    51   26  103 1    
    52   26  104 1    
    53   26  105 1    
    54   27   28 am   BACKBONE|DICT|INTERRES
    55   27  106 1    
    56   28   29 2    
    57   28   30 1    
    58   30   31 1    
    59   30   32 1    
    60   30  107 1    
    61   31  108 1    
    62   31  109 1    
    63   31  110 1    
    64   32   33 am   BACKBONE|DICT|INTERRES
    65   32  111 1    
    66   33   34 2    
    67   33   35 1    
    68   35   36 1    
    69   35   37 1    
    70   35  112 1    
    71   36  113 1    
    72   36  114 1    
    73   36  115 1    
    74   37   38 am   BACKBONE|DICT|INTERRES
    75   37  116 1    
    76   38   39 2    
    77   38   40 1    
    78   40   41 1    
    79   40   42 1    
    80   40  117 1    
    81   41  118 1    
    82   41  119 1    
    83   41  120 1    
    84   42   43 am   BACKBONE|DICT|INTERRES
    85   42  121 1    
    86   43   44 2    
    87   43   45 1    
    88   45   46 1    
    89   45   47 1    
    90   45  122 1    
    91   46  123 1    
    92   46  124 1    
    93   46  125 1    
    94   47   48 am   BACKBONE|DICT|INTERRES
    95   47  126 1    
    96   48   49 2    
    97   48   50 1    
    98   50   51 1    
    99   50   52 1    
   100   50  127 1    
   101   51  128 1    
   102   51  129 1    
   103   51  130 1    
   104   52   53 am   BACKBONE|DICT|INTERRES
   105   52  131 1    
   106   53   54 2    
   107   53   55 1    
   108   55   56 1    
   109   55   59 1    
   110   55  132 1    
   111   56   57 1    
   112   56  133 1    
   113   56  134 1    
   114   57   58 1    
   115   58  135 1    
   116   58  136 1    
   117   59   60 am   BACKBONE|DICT|INTERRES
   118   59  137 1    
   119   60   61 2    
   120   60   62 1    
   121   62   63 1    
   122   62   64 1    
   123   62  138 1    
   124   63  139 1    
   125   63  140 1    
   126   63  141 1    
   127   64   65 am   BACKBONE|DICT|INTERRES
   128   64  142 1    
   129   65   66 2    
   130   65   67 1    
   131   67   68 1    
   132   67   69 1    
   133   67  143 1    
   134   68  144 1    
   135   68  145 1    
   136   68  146 1    
   137   69   70 am   BACKBONE|DICT|INTERRES
   138   69  147 1    
   139   70   71 2    
   140   70   72 1    
   141   72   73 1    
   142   72   74 1    
   143   72  148 1    
   144   73  149 1    
   145   73  150 1    
   146   73  151 1    
   147   74   75 am   BACKBONE|DICT|INTERRES
   148   74  152 1    
   149   75   76 2    
   150   75   77 1    
   151   77   78 1    
   152   77   79 1    
   153   77  153 1    
   154   78  154 1    
   155   78  155 1    
   156   78  156 1    
   157   79   80 am   BACKBONE|DICT|INTERRES
   158   79  157 1    
   159   80   81 2    
@<TRIPOS>SUBSTRUCTURE
     1 UNK         1 GROUP             0       ****    0 ROOT    
