@<TRIPOS>MOLECULE
3R207
157   159    1
SMALL
USER_CHARGES


@<TRIPOS>ATOM
      1 CA        -49.3988  -28.8745    9.8702 C.3       0 UNK        -0.1975 
      2 C         -49.1347  -29.6433    8.5860 C.2       0 UNK         0.4852 
      3 O         -48.4158  -30.6425    8.5995 O.2       0 UNK        -0.5216 
      4 N         -49.6941  -29.1627    7.4669 N.am      1 UNK        -0.4461 
      5 CA        -49.5390  -29.7240    6.1124 C.3       1 UNK         0.0864 
      6 C6        -50.5654  -29.1373    5.1010 C.3       14 UNK        -0.0898 
      7 S7        -52.2369  -28.8650    5.7863 S.3       14 UNK        -0.2598 
      8 C8        -52.1667  -27.0512    5.9804 C.3       14 UNK         0.0286 
      9 C9        -53.2139  -26.4433    6.9084 C.ar      14 UNK        -0.0844 
     10 C10       -53.5595  -25.1033    6.7202 C.ar      14 UNK        -0.0881 
     11 C11       -54.4503  -24.4609    7.5836 C.ar      14 UNK        -0.0643 
     12 C12       -55.0301  -25.1834    8.6296 C.ar      14 UNK        -0.0930 
     13 C13       -54.7016  -26.5278    8.8296 C.ar      14 UNK        -0.0827 
     14 C14       -53.7885  -27.1508    7.9725 C.ar      14 UNK        -0.1249 
     15 C15       -55.3450  -27.3023    9.9702 C.3       14 UNK         0.0141 
     16 S16       -54.5264  -26.9711   11.5607 S.3       14 UNK        -0.2313 
     17 C17       -53.1215  -28.1334   11.5060 C.3       14 UNK        -0.0915 
     18 CA        -53.4179  -29.4667   12.2444 C.3       13 UNK         0.0968 
     19 C         -52.2709  -30.5012   12.0583 C.2       13 UNK         0.5732 
     20 N         -51.6994  -31.0769   13.1110 N.am      13 UNK        -0.7310 
     21 O         -51.9061  -30.8092   10.9270 O.2       13 UNK        -0.5035 
     22 N         -53.7945  -29.2573   13.6525 N.am      13 UNK        -0.4233 
     23 C         -54.6984  -30.0049   14.2999 C.2       13 UNK         0.4989 
     24 O         -55.3505  -30.9014   13.7605 O.2       13 UNK        -0.4996 
     25 CA        -54.9203  -29.7033   15.7962 C.3       12 UNK         0.0216 
     26 CB        -55.6181  -30.8613   16.5419 C.3       12 UNK        -0.1964 
     27 N         -53.7073  -29.2956   16.5148 N.am      12 UNK        -0.4276 
     28 C         -52.5581  -29.9801   16.6409 C.2       12 UNK         0.5020 
     29 O         -52.3528  -31.0670   16.0978 O.2       12 UNK        -0.5489 
     30 CA        -51.4429  -29.3369   17.4906 C.3       11 UNK         0.0294 
     31 CB        -50.0470  -29.6209   16.9046 C.3       11 UNK        -0.2019 
     32 N         -51.6262  -27.8882   17.5814 N.am      11 UNK        -0.4493 
     33 C         -52.0167  -27.2058   18.6667 C.2       11 UNK         0.4932 
     34 O         -52.1801  -27.7171   19.7743 O.2       11 UNK        -0.5029 
     35 CA        -52.3025  -25.6993   18.4867 C.3       10 UNK         0.0280 
     36 CB        -51.1037  -24.8669   18.9687 C.3       10 UNK        -0.1976 
     37 N         -52.6255  -25.3183   17.1069 N.am      10 UNK        -0.4242 
     38 C         -53.6916  -25.7493   16.4150 C.2       10 UNK         0.5072 
     39 O         -54.5840  -26.4431   16.9025 O.2       10 UNK        -0.5224 
     40 CA        -53.7221  -25.4371   14.9066 C.3       9 UNK         0.0343 
     41 CB        -54.5385  -24.1664   14.6305 C.3       9 UNK        -0.2003 
     42 N         -52.3878  -25.3079   14.3055 N.am      9 UNK        -0.4272 
     43 C         -51.4476  -26.2669   14.3096 C.2       9 UNK         0.4988 
     44 O         -51.6682  -27.4024   14.7313 O.2       9 UNK        -0.5108 
     45 CA        -50.0289  -25.9190   13.8134 C.3       8 UNK         0.0248 
     46 CB        -49.4486  -27.0253   12.9176 C.3       8 UNK        -0.2001 
     47 N         -49.9568  -24.6302   13.1206 N.am      8 UNK        -0.4140 
     48 C         -49.8820  -23.4391   13.7364 C.2       8 UNK         0.5028 
     49 O         -49.7766  -23.3165   14.9570 O.2       8 UNK        -0.5428 
     50 CA        -50.0089  -22.1703   12.8716 C.3       7 UNK         0.0264 
     51 CB        -48.6799  -21.4022   12.7921 C.3       7 UNK        -0.1988 
     52 N         -50.5207  -22.4328   11.5220 N.am      7 UNK        -0.4454 
     53 C         -51.7978  -22.7616   11.2641 C.2       7 UNK         0.5027 
     54 O         -52.6578  -22.8408   12.1416 O.2       7 UNK        -0.5083 
     55 CA        -52.1901  -23.0675    9.8028 C.3       6 UNK         0.0844 
     56 C56       -52.8917  -21.8289    9.1840 C.3       14 UNK        -0.0967 
     57 S57       -53.2651  -21.9548    7.4012 S.3       14 UNK        -0.2604 
     58 C58       -54.7701  -22.9853    7.3857 C.3       14 UNK         0.0134 
     59 N         -51.0768  -23.5685    8.9889 N.am      6 UNK        -0.4116 
     60 C         -50.3940  -24.6993    9.2200 C.2       5 UNK         0.5034 
     61 O         -50.6083  -25.4447   10.1756 O.2       5 UNK        -0.5045 
     62 CA        -49.2320  -25.0386    8.2640 C.3       5 UNK         0.0224 
     63 CB        -49.2398  -24.2311    6.9472 C.3       5 UNK        -0.1978 
     64 N         -47.9246  -24.9180    8.9234 N.am      5 UNK        -0.4737 
     65 C         -47.4710  -23.8659    9.6247 C.2       4 UNK         0.5027 
     66 O         -48.1082  -22.8255    9.7973 O.2       4 UNK        -0.5211 
     67 CA        -46.0740  -23.9930   10.2569 C.3       4 UNK         0.0297 
     68 CB        -46.1867  -24.5608   11.6822 C.3       4 UNK        -0.1993 
     69 N         -45.1502  -24.8337    9.4944 N.am      4 UNK        -0.4486 
     70 C         -44.6891  -24.5899    8.2602 C.2       3 UNK         0.4961 
     71 O         -44.9666  -23.5866    7.6024 O.2       3 UNK        -0.5105 
     72 CA        -43.7501  -25.6532    7.6555 C.3       3 UNK         0.0299 
     73 CB        -42.9569  -26.4463    8.7193 C.3       3 UNK        -0.1972 
     74 N         -44.4323  -26.5823    6.7452 N.am      3 UNK        -0.4305 
     75 C         -45.5292  -27.3120    6.9952 C.2       2 UNK         0.5006 
     76 O         -46.2034  -27.2331    8.0297 O.2       2 UNK        -0.5106 
     77 CA        -45.9246  -28.3310    5.9166 C.3       2 UNK         0.0296 
     78 CB        -44.9781  -29.5490    5.9589 C.3       2 UNK        -0.2002 
     79 N         -47.2970  -28.7241    6.2052 N.am      2 UNK        -0.4032 
     80 C         -48.1073  -29.5577    5.5440 C.2       1 UNK         0.5000 
     81 O         -47.7894  -30.1537    4.5131 O.2       1 UNK        -0.5238 
     82 H82       -50.3300  -28.3105    9.8157 H         1 UNK         0.0889 
     83 H83       -48.5839  -28.1770   10.0636 H         1 UNK         0.0889 
     84 H84       -49.4690  -29.5586   10.7154 H         1 UNK         0.0889 
     85 H85       -50.3333  -28.3852    7.5327 H         1 UNK         0.3028 
     86 H86       -49.7238  -30.7975    6.1918 H         1 UNK         0.0864 
     87 H87       -50.6629  -29.8123    4.2486 H         1 UNK         0.0720 
     88 H88       -50.2064  -28.1953    4.6802 H         1 UNK         0.0720 
     89 H89       -51.1870  -26.7652    6.3623 H         1 UNK         0.0814 
     90 H90       -52.2504  -26.6070    4.9869 H         1 UNK         0.0814 
     91 H91       -53.1095  -24.5408    5.9132 H         1 UNK         0.1469 
     92 H92       -55.7252  -24.6977    9.3009 H         1 UNK         0.1381 
     93 H93       -53.5250  -28.1848    8.1437 H         1 UNK         0.1206 
     94 H94       -56.3947  -27.0169   10.0530 H         1 UNK         0.0813 
     95 H95       -55.3396  -28.3741    9.7660 H         1 UNK         0.0813 
     96 H96       -52.8559  -28.3157   10.4642 H         1 UNK         0.0638 
     97 H97       -52.2597  -27.6381   11.9471 H         1 UNK         0.0638 
     98 H98       -54.2707  -29.9095   11.7268 H         1 UNK         0.0568 
     99 H99       -52.0154  -30.8872   14.0550 H         1 UNK         0.3450 
    100 H100      -50.9680  -31.7517   12.9581 H         1 UNK         0.3450 
    101 H101      -53.2402  -28.5783   14.1623 H         1 UNK         0.2987 
    102 H102      -55.5911  -28.8435   15.8267 H         1 UNK         0.0766 
    103 H103      -55.7930  -30.6110   17.5883 H         1 UNK         0.0798 
    104 H104      -56.5892  -31.0866   16.0993 H         1 UNK         0.0798 
    105 H105      -55.0252  -31.7761   16.5102 H         1 UNK         0.0798 
    106 H106      -53.7690  -28.3866   16.9605 H         1 UNK         0.3198 
    107 H107      -51.4970  -29.7908   18.4822 H         1 UNK         0.0843 
    108 H108      -49.9579  -29.2544   15.8810 H         1 UNK         0.0831 
    109 H109      -49.8385  -30.6914   16.8868 H         1 UNK         0.0831 
    110 H110      -49.2640  -29.1505   17.4992 H         1 UNK         0.0831 
    111 H111      -51.5559  -27.4029   16.6922 H         1 UNK         0.3133 
    112 H112      -53.1647  -25.4531   19.1099 H         1 UNK         0.0566 
    113 H113      -50.2139  -25.0524   18.3653 H         1 UNK         0.0814 
    114 H114      -50.8520  -25.1068   20.0028 H         1 UNK         0.0814 
    115 H115      -51.3195  -23.7990   18.9300 H         1 UNK         0.0814 
    116 H116      -51.9465  -24.7461   16.6243 H         1 UNK         0.3091 
    117 H117      -54.2233  -26.2753   14.4202 H         1 UNK         0.0702 
    118 H118      -54.6852  -24.0196   13.5601 H         1 UNK         0.0785 
    119 H119      -54.0501  -23.2760   15.0282 H         1 UNK         0.0785 
    120 H120      -55.5287  -24.2297   15.0842 H         1 UNK         0.0785 
    121 H121      -52.1678  -24.4132   13.8888 H         1 UNK         0.2998 
    122 H122      -49.4000  -25.8681   14.7046 H         1 UNK         0.0697 
    123 H123      -50.0310  -27.1496   12.0081 H         1 UNK         0.0825 
    124 H124      -49.4392  -27.9879   13.4309 H         1 UNK         0.0825 
    125 H125      -48.4215  -26.8052   12.6292 H         1 UNK         0.0825 
    126 H126      -50.0880  -24.6582   12.1150 H         1 UNK         0.3029 
    127 H127      -50.7265  -21.5219   13.3797 H         1 UNK         0.0897 
    128 H128      -48.8038  -20.4535   12.2697 H         1 UNK         0.0792 
    129 H129      -48.3004  -21.1740   13.7891 H         1 UNK         0.0792 
    130 H130      -47.9082  -21.9668   12.2732 H         1 UNK         0.0792 
    131 H131      -49.8406  -22.4274   10.7657 H         1 UNK         0.3086 
    132 H132      -52.9184  -23.8775    9.8544 H         1 UNK         0.0583 
    133 H133      -53.8191  -21.6147    9.7194 H         1 UNK         0.1020 
    134 H134      -52.2675  -20.9416    9.3101 H         1 UNK         0.1020 
    135 H135      -55.4686  -22.6247    8.1423 H         1 UNK         0.0694 
    136 H136      -55.2679  -22.8634    6.4229 H         1 UNK         0.0694 
    137 H137      -50.8213  -23.0019    8.1941 H         1 UNK         0.2989 
    138 H138      -49.3528  -26.0915    8.0086 H         1 UNK         0.1055 
    139 H139      -48.4749  -24.6000    6.2635 H         1 UNK         0.0806 
    140 H140      -49.0424  -23.1711    7.1119 H         1 UNK         0.0806 
    141 H141      -50.1969  -24.3180    6.4307 H         1 UNK         0.0806 
    142 H142      -47.3076  -25.7201    8.8318 H         1 UNK         0.3061 
    143 H143      -45.6476  -22.9894   10.3138 H         1 UNK         0.0734 
    144 H144      -46.8953  -23.9952   12.2860 H         1 UNK         0.0832 
    145 H145      -46.5279  -25.5964   11.6754 H         1 UNK         0.0832 
    146 H146      -45.2274  -24.5277   12.1988 H         1 UNK         0.0832 
    147 H147      -44.8854  -25.7105    9.9195 H         1 UNK         0.3156 
    148 H148      -43.0239  -25.1070    7.0513 H         1 UNK         0.0589 
    149 H149      -43.5918  -27.1175    9.2988 H         1 UNK         0.0808 
    150 H150      -42.1837  -27.0560    8.2515 H         1 UNK         0.0808 
    151 H151      -42.4533  -25.7766    9.4180 H         1 UNK         0.0808 
    152 H152      -43.9874  -26.7002    5.8452 H         1 UNK         0.3098 
    153 H153      -45.8899  -27.8535    4.9358 H         1 UNK         0.0720 
    154 H154      -45.2134  -30.2711    5.1774 H         1 UNK         0.0791 
    155 H155      -43.9400  -29.2498    5.8094 H         1 UNK         0.0791 
    156 H156      -45.0340  -30.0654    6.9182 H         1 UNK         0.0791 
    157 H157      -47.6417  -28.2996    7.0580 H         1 UNK         0.3028 
@<TRIPOS>BOND
     1    1    2 1    
     2    1   82 1    
     3    1   83 1    
     4    1   84 1    
     5    2    3 2    
     6    2    4 am   BACKBONE|DICT|INTERRES
     7    4    5 1    
     8    4   85 1    
     9    5    6 1    
    10    5   80 1    
    11    5   86 1    
    12    6    7 1    
    13    6   87 1    
    14    6   88 1    
    15    7    8 1    
    16    8    9 1    
    17    8   89 1    
    18    8   90 1    
    19    9   10 ar   
    20    9   14 ar   
    21   10   11 ar   
    22   10   91 1    
    23   11   12 ar   
    24   11   58 1    
    25   12   13 ar   
    26   12   92 1    
    27   13   14 ar   
    28   13   15 1    
    29   14   93 1    
    30   15   16 1    
    31   15   94 1    
    32   15   95 1    
    33   16   17 1    
    34   17   18 1    
    35   17   96 1    
    36   17   97 1    
    37   18   19 1    
    38   18   22 1    
    39   18   98 1    
    40   19   20 am   BACKBONE|DICT|INTERRES
    41   19   21 2    
    42   20   99 1    
    43   20  100 1    
    44   22   23 am   BACKBONE|DICT|INTERRES
    45   22  101 1    
    46   23   24 2    
    47   23   25 1    
    48   25   26 1    
    49   25   27 1    
    50   25  102 1    
    51   26  103 1    
    52   26  104 1    
    53   26  105 1    
    54   27   28 am   BACKBONE|DICT|INTERRES
    55   27  106 1    
    56   28   29 2    
    57   28   30 1    
    58   30   31 1    
    59   30   32 1    
    60   30  107 1    
    61   31  108 1    
    62   31  109 1    
    63   31  110 1    
    64   32   33 am   BACKBONE|DICT|INTERRES
    65   32  111 1    
    66   33   34 2    
    67   33   35 1    
    68   35   36 1    
    69   35   37 1    
    70   35  112 1    
    71   36  113 1    
    72   36  114 1    
    73   36  115 1    
    74   37   38 am   BACKBONE|DICT|INTERRES
    75   37  116 1    
    76   38   39 2    
    77   38   40 1    
    78   40   41 1    
    79   40   42 1    
    80   40  117 1    
    81   41  118 1    
    82   41  119 1    
    83   41  120 1    
    84   42   43 am   BACKBONE|DICT|INTERRES
    85   42  121 1    
    86   43   44 2    
    87   43   45 1    
    88   45   46 1    
    89   45   47 1    
    90   45  122 1    
    91   46  123 1    
    92   46  124 1    
    93   46  125 1    
    94   47   48 am   BACKBONE|DICT|INTERRES
    95   47  126 1    
    96   48   49 2    
    97   48   50 1    
    98   50   51 1    
    99   50   52 1    
   100   50  127 1    
   101   51  128 1    
   102   51  129 1    
   103   51  130 1    
   104   52   53 am   BACKBONE|DICT|INTERRES
   105   52  131 1    
   106   53   54 2    
   107   53   55 1    
   108   55   56 1    
   109   55   59 1    
   110   55  132 1    
   111   56   57 1    
   112   56  133 1    
   113   56  134 1    
   114   57   58 1    
   115   58  135 1    
   116   58  136 1    
   117   59   60 am   BACKBONE|DICT|INTERRES
   118   59  137 1    
   119   60   61 2    
   120   60   62 1    
   121   62   63 1    
   122   62   64 1    
   123   62  138 1    
   124   63  139 1    
   125   63  140 1    
   126   63  141 1    
   127   64   65 am   BACKBONE|DICT|INTERRES
   128   64  142 1    
   129   65   66 2    
   130   65   67 1    
   131   67   68 1    
   132   67   69 1    
   133   67  143 1    
   134   68  144 1    
   135   68  145 1    
   136   68  146 1    
   137   69   70 am   BACKBONE|DICT|INTERRES
   138   69  147 1    
   139   70   71 2    
   140   70   72 1    
   141   72   73 1    
   142   72   74 1    
   143   72  148 1    
   144   73  149 1    
   145   73  150 1    
   146   73  151 1    
   147   74   75 am   BACKBONE|DICT|INTERRES
   148   74  152 1    
   149   75   76 2    
   150   75   77 1    
   151   77   78 1    
   152   77   79 1    
   153   77  153 1    
   154   78  154 1    
   155   78  155 1    
   156   78  156 1    
   157   79   80 am   BACKBONE|DICT|INTERRES
   158   79  157 1    
   159   80   81 2    
@<TRIPOS>SUBSTRUCTURE
     1 UNK         1 GROUP             0       ****    0 ROOT    
