@<TRIPOS>MOLECULE
3R207
157   159    1
SMALL
USER_CHARGES


@<TRIPOS>ATOM
      1 CA        -49.0263  -29.2025    4.9240 C.3       0 UNK        -0.1975 
      2 C         -49.4087  -27.8319    5.4597 C.2       0 UNK         0.4852 
      3 O         -48.5277  -27.0649    5.8475 O.2       0 UNK        -0.5216 
      4 N         -50.7134  -27.5134    5.4659 N.am      1 UNK        -0.4461 
      5 CA        -51.3198  -26.2902    6.0232 C.3       1 UNK         0.0864 
      6 C6        -51.2982  -26.2694    7.5750 C.3       14 UNK        -0.0898 
      7 S7        -52.1994  -27.6585    8.3359 S.3       14 UNK        -0.2598 
      8 C8        -50.8496  -28.8187    8.7132 C.3       14 UNK         0.0286 
      9 C9        -51.2044  -29.7242    9.8824 C.ar      14 UNK        -0.0844 
     10 C10       -50.5108  -29.6206   11.0931 C.ar      14 UNK        -0.0881 
     11 C11       -50.8156  -30.4693   12.1662 C.ar      14 UNK        -0.0643 
     12 C12       -51.8440  -31.4061   12.0175 C.ar      14 UNK        -0.0930 
     13 C13       -52.5423  -31.5221   10.8125 C.ar      14 UNK        -0.0827 
     14 C14       -52.2117  -30.6829    9.7459 C.ar      14 UNK        -0.1249 
     15 C15       -53.6217  -32.5838   10.6474 C.3       14 UNK         0.0141 
     16 S16       -55.2845  -31.8720   10.4403 S.3       14 UNK        -0.2313 
     17 C17       -55.6616  -31.2668   12.1203 C.3       14 UNK        -0.0915 
     18 CA        -56.4682  -29.9429   12.0835 C.3       13 UNK         0.0968 
     19 C         -57.0180  -29.5750   13.4898 C.2       13 UNK         0.5732 
     20 N         -58.0881  -30.2305   13.9205 N.am      13 UNK        -0.7310 
     21 O         -56.4794  -28.7339   14.2054 O.2       13 UNK        -0.5035 
     22 N         -55.6895  -28.8671   11.4562 N.am      13 UNK        -0.4233 
     23 C         -56.1862  -27.6994   11.0301 C.2       13 UNK         0.4989 
     24 O         -57.3783  -27.3933   11.1019 O.2       13 UNK        -0.4996 
     25 CA        -55.1795  -26.7364   10.3702 C.3       12 UNK         0.0216 
     26 CB        -55.7223  -25.3011   10.1963 C.3       12 UNK        -0.1964 
     27 N         -53.8673  -26.7412   11.0308 N.am      12 UNK        -0.4276 
     28 C         -53.5842  -26.3344   12.2763 C.2       12 UNK         0.5020 
     29 O         -54.3979  -25.8031   13.0358 O.2       12 UNK        -0.5489 
     30 CA        -52.1224  -26.5267   12.7211 C.3       11 UNK         0.0294 
     31 CB        -51.2399  -25.3884   12.1816 C.3       11 UNK        -0.2019 
     32 N         -51.9787  -26.5925   14.1773 N.am      11 UNK        -0.4493 
     33 C         -52.4795  -27.5599   14.9587 C.2       11 UNK         0.4932 
     34 O         -53.0448  -28.5628   14.5228 O.2       11 UNK        -0.5029 
     35 CA        -52.3115  -27.4097   16.4802 C.3       10 UNK         0.0280 
     36 CB        -51.0587  -28.1602   16.9613 C.3       10 UNK        -0.1976 
     37 N         -52.2119  -26.0098   16.9036 N.am      10 UNK        -0.4242 
     38 C         -53.1120  -25.3661   17.6609 C.2       10 UNK         0.5072 
     39 O         -54.1578  -25.8773   18.0650 O.2       10 UNK        -0.5224 
     40 CA        -52.7950  -23.9155   18.0797 C.3       9 UNK         0.0343 
     41 CB        -52.2708  -23.8813   19.5250 C.3       9 UNK        -0.2003 
     42 N         -51.8242  -23.2485   17.2105 N.am      9 UNK        -0.4272 
     43 C         -52.0947  -22.7803   15.9848 C.2       9 UNK         0.4988 
     44 O         -53.2207  -22.7802   15.4879 O.2       9 UNK        -0.5108 
     45 CA        -50.9132  -22.2269   15.1619 C.3       8 UNK         0.0248 
     46 CB        -50.8836  -20.6916   15.2405 C.3       8 UNK        -0.2001 
     47 N         -49.5838  -22.7520   15.5115 N.am      8 UNK        -0.4140 
     48 C         -49.2380  -24.0460   15.5346 C.2       8 UNK         0.5028 
     49 O         -50.0426  -24.9711   15.3995 O.2       8 UNK        -0.5428 
     50 CA        -47.7576  -24.3692   15.8011 C.3       7 UNK         0.0264 
     51 CB        -47.4993  -24.4606   17.3138 C.3       7 UNK        -0.1988 
     52 N         -47.3786  -25.6393   15.1748 N.am      7 UNK        -0.4454 
     53 C         -47.3446  -25.8422   13.8504 C.2       7 UNK         0.5027 
     54 O         -47.4458  -24.9306   13.0235 O.2       7 UNK        -0.5083 
     55 CA        -47.2137  -27.3078   13.3897 C.3       6 UNK         0.0844 
     56 C56       -48.4701  -28.1188   13.7975 C.3       14 UNK        -0.0967 
     57 S57       -48.3257  -29.8914   13.3971 S.3       14 UNK        -0.2604 
     58 C58       -50.0733  -30.4079   13.5025 C.3       14 UNK         0.0134 
     59 N         -47.0318  -27.3271   11.9428 N.am      6 UNK        -0.4116 
     60 C         -45.9193  -27.6189   11.2702 C.2       5 UNK         0.5034 
     61 O         -44.8688  -27.9883   11.7968 O.2       5 UNK        -0.5045 
     62 CA        -45.9846  -27.4634    9.7386 C.3       5 UNK         0.0224 
     63 CB        -46.6981  -28.6666    9.0919 C.3       5 UNK        -0.1978 
     64 N         -46.5619  -26.1932    9.2687 N.am      5 UNK        -0.4737 
     65 C         -47.7985  -25.6979    9.4193 C.2       4 UNK         0.5027 
     66 O         -48.6949  -26.2678   10.0409 O.2       4 UNK        -0.5211 
     67 CA        -48.0949  -24.3356    8.7659 C.3       4 UNK         0.0297 
     68 CB        -47.5201  -23.1768    9.6030 C.3       4 UNK        -0.1993 
     69 N         -47.6987  -24.2517    7.3519 N.am      4 UNK        -0.4486 
     70 C         -46.4678  -24.2839    6.8148 C.2       3 UNK         0.4961 
     71 O         -45.4349  -24.3043    7.4867 O.2       3 UNK        -0.5105 
     72 CA        -46.3517  -24.3421    5.2792 C.3       3 UNK         0.0299 
     73 CB        -45.4327  -25.4984    4.8450 C.3       3 UNK        -0.1972 
     74 N         -47.6547  -24.5246    4.6370 N.am      3 UNK        -0.4305 
     75 C         -48.3083  -23.5927    3.9285 C.2       2 UNK         0.5006 
     76 O         -47.8559  -22.4719    3.6917 O.2       2 UNK        -0.5106 
     77 CA        -49.7100  -23.9538    3.3924 C.3       2 UNK         0.0296 
     78 CB        -49.6309  -24.3308    1.9038 C.3       2 UNK        -0.2002 
     79 N         -50.3851  -25.0323    4.1233 N.am      2 UNK        -0.4032 
     80 C         -50.7207  -24.9951    5.4217 C.2       1 UNK         0.5000 
     81 O         -50.5159  -24.0133    6.1392 O.2       1 UNK        -0.5238 
     82 H82       -49.8983  -29.7794    4.6167 H         1 UNK         0.0889 
     83 H83       -48.4986  -29.7675    5.6919 H         1 UNK         0.0889 
     84 H84       -48.3660  -29.0975    4.0638 H         1 UNK         0.0889 
     85 H85       -51.3779  -28.1884    5.1128 H         1 UNK         0.3028 
     86 H86       -52.3650  -26.2966    5.7099 H         1 UNK         0.0864 
     87 H87       -50.2719  -26.2528    7.9365 H         1 UNK         0.0720 
     88 H88       -51.7644  -25.3580    7.9541 H         1 UNK         0.0720 
     89 H89       -50.6399  -29.4267    7.8327 H         1 UNK         0.0814 
     90 H90       -49.9362  -28.2666    8.9280 H         1 UNK         0.0814 
     91 H91       -49.7280  -28.8817   11.1914 H         1 UNK         0.1469 
     92 H92       -52.0932  -32.0596   12.8425 H         1 UNK         0.1381 
     93 H93       -52.7436  -30.7726    8.8082 H         1 UNK         0.1206 
     94 H94       -53.6294  -33.2730   11.4934 H         1 UNK         0.0813 
     95 H95       -53.3893  -33.1863    9.7683 H         1 UNK         0.0813 
     96 H96       -56.2228  -32.0519   12.6301 H         1 UNK         0.0638 
     97 H97       -54.7384  -31.1317   12.6865 H         1 UNK         0.0638 
     98 H98       -57.3406  -30.1043   11.4466 H         1 UNK         0.0568 
     99 H99       -58.4564  -30.0169   14.8341 H         1 UNK         0.3450 
    100 H100      -58.5378  -30.9295   13.3500 H         1 UNK         0.3450 
    101 H101      -54.6977  -29.0330   11.3785 H         1 UNK         0.2987 
    102 H102      -55.0111  -27.1351    9.3690 H         1 UNK         0.0766 
    103 H103      -56.6155  -25.2955    9.5706 H         1 UNK         0.0798 
    104 H104      -54.9874  -24.6551    9.7160 H         1 UNK         0.0798 
    105 H105      -55.9943  -24.8499   11.1508 H         1 UNK         0.0798 
    106 H106      -53.1166  -27.1323   10.4733 H         1 UNK         0.3198 
    107 H107      -51.7638  -27.4728   12.3138 H         1 UNK         0.0843 
    108 H108      -51.5701  -24.4168   12.5503 H         1 UNK         0.0831 
    109 H109      -51.2663  -25.3525   11.0915 H         1 UNK         0.0831 
    110 H110      -50.1967  -25.5175   12.4694 H         1 UNK         0.0831 
    111 H111      -51.4519  -25.8400   14.6129 H         1 UNK         0.3133 
    112 H112      -53.1804  -27.8850   16.9398 H         1 UNK         0.0566 
    113 H113      -50.1454  -27.6895   16.5987 H         1 UNK         0.0814 
    114 H114      -51.0599  -29.1950   16.6163 H         1 UNK         0.0814 
    115 H115      -51.0094  -28.1829   18.0500 H         1 UNK         0.0814 
    116 H116      -51.3974  -25.5012   16.5683 H         1 UNK         0.3091 
    117 H117      -53.7312  -23.3540   18.0452 H         1 UNK         0.0702 
    118 H118      -52.1109  -22.8581   19.8656 H         1 UNK         0.0785 
    119 H119      -51.3287  -24.4218   19.6262 H         1 UNK         0.0785 
    120 H120      -52.9849  -24.3406   20.2102 H         1 UNK         0.0785 
    121 H121      -50.8724  -23.1972   17.5424 H         1 UNK         0.2998 
    122 H122      -51.0983  -22.5074   14.1232 H         1 UNK         0.0697 
    123 H123      -50.1389  -20.2718   14.5639 H         1 UNK         0.0825 
    124 H124      -50.6575  -20.3437   16.2493 H         1 UNK         0.0825 
    125 H125      -51.8479  -20.2662   14.9583 H         1 UNK         0.0825 
    126 H126      -48.8623  -22.0620   15.6655 H         1 UNK         0.3029 
    127 H127      -47.1385  -23.5757   15.3767 H         1 UNK         0.0897 
    128 H128      -48.1063  -25.2372   17.7816 H         1 UNK         0.0792 
    129 H129      -47.7359  -23.5188   17.8108 H         1 UNK         0.0792 
    130 H130      -46.4524  -24.6801   17.5250 H         1 UNK         0.0792 
    131 H131      -47.2950  -26.4335   15.7920 H         1 UNK         0.3086 
    132 H132      -46.3382  -27.7332   13.8845 H         1 UNK         0.0583 
    133 H133      -48.6461  -28.0492   14.8708 H         1 UNK         0.1020 
    134 H134      -49.3614  -27.7121   13.3167 H         1 UNK         0.1020 
    135 H135      -50.0859  -31.3951   13.9669 H         1 UNK         0.0694 
    136 H136      -50.6136  -29.7500   14.1817 H         1 UNK         0.0694 
    137 H137      -47.8020  -26.9454   11.3954 H         1 UNK         0.2989 
    138 H138      -44.9535  -27.4639    9.3811 H         1 UNK         0.1055 
    139 H139      -47.7178  -28.7789    9.4584 H         1 UNK         0.0806 
    140 H140      -46.1725  -29.5955    9.3165 H         1 UNK         0.0806 
    141 H141      -46.7406  -28.5685    8.0068 H         1 UNK         0.0806 
    142 H142      -45.9252  -25.6010    8.7388 H         1 UNK         0.3061 
    143 H143      -49.1800  -24.2209    8.7675 H         1 UNK         0.0734 
    144 H144      -46.4329  -23.2156    9.6709 H         1 UNK         0.0832 
    145 H145      -47.7972  -22.2096    9.1844 H         1 UNK         0.0832 
    146 H146      -47.9050  -23.2127   10.6234 H         1 UNK         0.0832 
    147 H147      -48.4817  -24.2372    6.7078 H         1 UNK         0.3156 
    148 H148      -45.8928  -23.4049    4.9589 H         1 UNK         0.0589 
    149 H149      -45.3373  -25.5428    3.7601 H         1 UNK         0.0808 
    150 H150      -44.4276  -25.3781    5.2514 H         1 UNK         0.0808 
    151 H151      -45.8109  -26.4625    5.1885 H         1 UNK         0.0808 
    152 H152      -48.1037  -25.4180    4.8218 H         1 UNK         0.3098 
    153 H153      -50.3288  -23.0589    3.4858 H         1 UNK         0.0720 
    154 H154      -49.0434  -25.2366    1.7476 H         1 UNK         0.0791 
    155 H155      -49.1622  -23.5347    1.3233 H         1 UNK         0.0791 
    156 H156      -50.6225  -24.4946    1.4813 H         1 UNK         0.0791 
    157 H157      -50.5694  -25.8824    3.6100 H         1 UNK         0.3028 
@<TRIPOS>BOND
     1    1    2 1    
     2    1   82 1    
     3    1   83 1    
     4    1   84 1    
     5    2    3 2    
     6    2    4 am   BACKBONE|DICT|INTERRES
     7    4    5 1    
     8    4   85 1    
     9    5    6 1    
    10    5   80 1    
    11    5   86 1    
    12    6    7 1    
    13    6   87 1    
    14    6   88 1    
    15    7    8 1    
    16    8    9 1    
    17    8   89 1    
    18    8   90 1    
    19    9   10 ar   
    20    9   14 ar   
    21   10   11 ar   
    22   10   91 1    
    23   11   12 ar   
    24   11   58 1    
    25   12   13 ar   
    26   12   92 1    
    27   13   14 ar   
    28   13   15 1    
    29   14   93 1    
    30   15   16 1    
    31   15   94 1    
    32   15   95 1    
    33   16   17 1    
    34   17   18 1    
    35   17   96 1    
    36   17   97 1    
    37   18   19 1    
    38   18   22 1    
    39   18   98 1    
    40   19   20 am   BACKBONE|DICT|INTERRES
    41   19   21 2    
    42   20   99 1    
    43   20  100 1    
    44   22   23 am   BACKBONE|DICT|INTERRES
    45   22  101 1    
    46   23   24 2    
    47   23   25 1    
    48   25   26 1    
    49   25   27 1    
    50   25  102 1    
    51   26  103 1    
    52   26  104 1    
    53   26  105 1    
    54   27   28 am   BACKBONE|DICT|INTERRES
    55   27  106 1    
    56   28   29 2    
    57   28   30 1    
    58   30   31 1    
    59   30   32 1    
    60   30  107 1    
    61   31  108 1    
    62   31  109 1    
    63   31  110 1    
    64   32   33 am   BACKBONE|DICT|INTERRES
    65   32  111 1    
    66   33   34 2    
    67   33   35 1    
    68   35   36 1    
    69   35   37 1    
    70   35  112 1    
    71   36  113 1    
    72   36  114 1    
    73   36  115 1    
    74   37   38 am   BACKBONE|DICT|INTERRES
    75   37  116 1    
    76   38   39 2    
    77   38   40 1    
    78   40   41 1    
    79   40   42 1    
    80   40  117 1    
    81   41  118 1    
    82   41  119 1    
    83   41  120 1    
    84   42   43 am   BACKBONE|DICT|INTERRES
    85   42  121 1    
    86   43   44 2    
    87   43   45 1    
    88   45   46 1    
    89   45   47 1    
    90   45  122 1    
    91   46  123 1    
    92   46  124 1    
    93   46  125 1    
    94   47   48 am   BACKBONE|DICT|INTERRES
    95   47  126 1    
    96   48   49 2    
    97   48   50 1    
    98   50   51 1    
    99   50   52 1    
   100   50  127 1    
   101   51  128 1    
   102   51  129 1    
   103   51  130 1    
   104   52   53 am   BACKBONE|DICT|INTERRES
   105   52  131 1    
   106   53   54 2    
   107   53   55 1    
   108   55   56 1    
   109   55   59 1    
   110   55  132 1    
   111   56   57 1    
   112   56  133 1    
   113   56  134 1    
   114   57   58 1    
   115   58  135 1    
   116   58  136 1    
   117   59   60 am   BACKBONE|DICT|INTERRES
   118   59  137 1    
   119   60   61 2    
   120   60   62 1    
   121   62   63 1    
   122   62   64 1    
   123   62  138 1    
   124   63  139 1    
   125   63  140 1    
   126   63  141 1    
   127   64   65 am   BACKBONE|DICT|INTERRES
   128   64  142 1    
   129   65   66 2    
   130   65   67 1    
   131   67   68 1    
   132   67   69 1    
   133   67  143 1    
   134   68  144 1    
   135   68  145 1    
   136   68  146 1    
   137   69   70 am   BACKBONE|DICT|INTERRES
   138   69  147 1    
   139   70   71 2    
   140   70   72 1    
   141   72   73 1    
   142   72   74 1    
   143   72  148 1    
   144   73  149 1    
   145   73  150 1    
   146   73  151 1    
   147   74   75 am   BACKBONE|DICT|INTERRES
   148   74  152 1    
   149   75   76 2    
   150   75   77 1    
   151   77   78 1    
   152   77   79 1    
   153   77  153 1    
   154   78  154 1    
   155   78  155 1    
   156   78  156 1    
   157   79   80 am   BACKBONE|DICT|INTERRES
   158   79  157 1    
   159   80   81 2    
@<TRIPOS>SUBSTRUCTURE
     1 UNK         1 GROUP             0       ****    0 ROOT    
