@<TRIPOS>MOLECULE
3R207
157   159    1
SMALL
USER_CHARGES


@<TRIPOS>ATOM
      1 CA        -47.1440  -30.9189    6.5968 C.3       0 UNK        -0.1975 
      2 C         -47.9249  -30.6082    7.8719 C.2       0 UNK         0.4852 
      3 O         -47.4065  -30.8399    8.9618 O.2       0 UNK        -0.5216 
      4 N         -49.1643  -30.0972    7.8039 N.am      1 UNK        -0.4461 
      5 CA        -49.9209  -29.7196    6.6003 C.3       1 UNK         0.0864 
      6 C6        -51.3986  -29.4238    6.9569 C.3       14 UNK        -0.0898 
      7 S7        -52.5507  -29.6948    5.5634 S.3       14 UNK        -0.2598 
      8 C8        -53.3469  -28.0620    5.3646 C.3       14 UNK         0.0286 
      9 C9        -53.9244  -27.5327    6.6718 C.ar      14 UNK        -0.0844 
     10 C10       -53.4422  -26.3388    7.2153 C.ar      14 UNK        -0.0881 
     11 C11       -53.8736  -25.8982    8.4720 C.ar      14 UNK        -0.0643 
     12 C12       -54.8315  -26.6467    9.1634 C.ar      14 UNK        -0.0930 
     13 C13       -55.3366  -27.8323    8.6216 C.ar      14 UNK        -0.0827 
     14 C14       -54.8919  -28.2620    7.3686 C.ar      14 UNK        -0.1249 
     15 C15       -56.3082  -28.6880    9.4179 C.3       14 UNK         0.0141 
     16 S16       -55.4068  -30.0294   10.2478 S.3       14 UNK        -0.2313 
     17 C17       -56.7241  -30.8552   11.1960 C.3       14 UNK        -0.0915 
     18 CA        -56.7595  -30.4589   12.6975 C.3       13 UNK         0.0968 
     19 C         -57.9081  -31.2279   13.4141 C.2       13 UNK         0.5732 
     20 N         -57.6240  -32.2281   14.2402 N.am      13 UNK        -0.7310 
     21 O         -59.0780  -30.9101   13.2128 O.2       13 UNK        -0.5035 
     22 N         -55.4328  -30.5579   13.3347 N.am      13 UNK        -0.4233 
     23 C         -55.1282  -30.1402   14.5704 C.2       13 UNK         0.4989 
     24 O         -55.9435  -29.6495   15.3521 O.2       13 UNK        -0.4996 
     25 CA        -53.6593  -30.2649   15.0100 C.3       12 UNK         0.0216 
     26 CB        -53.1990  -31.7334   15.1178 C.3       12 UNK        -0.1964 
     27 N         -52.7605  -29.4452   14.1900 N.am      12 UNK        -0.4276 
     28 C         -52.4226  -29.6026   12.8997 C.2       12 UNK         0.5020 
     29 O         -52.7109  -30.6021   12.2397 O.2       12 UNK        -0.5489 
     30 CA        -51.6380  -28.4464   12.2371 C.3       11 UNK         0.0294 
     31 CB        -51.8360  -28.3787   10.7090 C.3       11 UNK        -0.2019 
     32 N         -51.8964  -27.1375   12.8505 N.am      11 UNK        -0.4493 
     33 C         -53.0813  -26.5228   13.0083 C.2       11 UNK         0.4932 
     34 O         -54.1350  -26.9256   12.5168 O.2       11 UNK        -0.5029 
     35 CA        -53.1000  -25.2673   13.9108 C.3       10 UNK         0.0280 
     36 CB        -54.4423  -25.1195   14.6592 C.3       10 UNK        -0.1976 
     37 N         -51.9764  -25.1805   14.8632 N.am      10 UNK        -0.4242 
     38 C         -51.6612  -26.0861   15.8044 C.2       10 UNK         0.5072 
     39 O         -52.2476  -27.1645   15.9229 O.2       10 UNK        -0.5224 
     40 CA        -50.4975  -25.7558   16.7528 C.3       9 UNK         0.0343 
     41 CB        -50.0374  -26.9897   17.5642 C.3       9 UNK        -0.2003 
     42 N         -49.3562  -25.1582   16.0516 N.am      9 UNK        -0.4272 
     43 C         -48.3961  -24.4571   16.6739 C.2       9 UNK         0.4988 
     44 O         -48.4345  -24.1528   17.8674 O.2       9 UNK        -0.5108 
     45 CA        -47.1680  -24.0470   15.8460 C.3       8 UNK         0.0248 
     46 CB        -46.3386  -25.2796   15.4491 C.3       8 UNK        -0.2001 
     47 N         -47.5084  -23.2600   14.6611 N.am      8 UNK        -0.4140 
     48 C         -48.0246  -22.0222   14.6963 C.2       8 UNK         0.5028 
     49 O         -48.2403  -21.3947   15.7341 O.2       8 UNK        -0.5428 
     50 CA        -48.3643  -21.3666   13.3468 C.3       7 UNK         0.0264 
     51 CB        -47.1207  -20.6954   12.7419 C.3       7 UNK        -0.1988 
     52 N         -48.9334  -22.3034   12.3767 N.am      7 UNK        -0.4454 
     53 C         -50.0950  -22.9544   12.5333 C.2       7 UNK         0.5027 
     54 O         -50.8399  -22.8090   13.5034 O.2       7 UNK        -0.5083 
     55 CA        -50.4560  -23.9891   11.4518 C.3       6 UNK         0.0844 
     56 C56       -51.0330  -23.3095   10.1880 C.3       14 UNK        -0.0967 
     57 S57       -51.4829  -24.5333    8.9164 S.3       14 UNK        -0.2604 
     58 C58       -53.2932  -24.6373    9.1068 C.3       14 UNK         0.0134 
     59 N         -49.3293  -24.8840   11.1777 N.am      6 UNK        -0.4116 
     60 C         -48.7864  -25.7274   12.0677 C.2       5 UNK         0.5034 
     61 O         -49.2250  -25.9066   13.2073 O.2       5 UNK        -0.5045 
     62 CA        -47.5202  -26.4713   11.6190 C.3       5 UNK         0.0224 
     63 CB        -47.8809  -27.7780   10.8942 C.3       5 UNK        -0.1978 
     64 N         -46.6823  -25.6364   10.7540 N.am      5 UNK        -0.4737 
     65 C         -45.9630  -24.5917   11.1885 C.2       4 UNK         0.5027 
     66 O         -45.9018  -24.2524   12.3691 O.2       4 UNK        -0.5211 
     67 CA        -45.2275  -23.7580   10.1250 C.3       4 UNK         0.0297 
     68 CB        -43.8863  -24.4122    9.7581 C.3       4 UNK        -0.1993 
     69 N         -46.0231  -23.5515    8.9121 N.am      4 UNK        -0.4486 
     70 C         -47.1778  -22.8723    8.8713 C.2       3 UNK         0.4961 
     71 O         -47.6661  -22.2977    9.8434 O.2       3 UNK        -0.5105 
     72 CA        -47.9450  -22.8634    7.5370 C.3       3 UNK         0.0299 
     73 CB        -47.5336  -21.6452    6.6957 C.3       3 UNK        -0.1972 
     74 N         -47.8131  -24.0830    6.7294 N.am      3 UNK        -0.4305 
     75 C         -48.0669  -25.3314    7.1460 C.2       2 UNK         0.5006 
     76 O         -48.3326  -25.6344    8.3126 O.2       2 UNK        -0.5106 
     77 CA        -47.9680  -26.4319    6.0865 C.3       2 UNK         0.0296 
     78 CB        -46.4991  -26.7912    5.7966 C.3       2 UNK        -0.2002 
     79 N         -48.6701  -27.6085    6.5844 N.am      2 UNK        -0.4032 
     80 C         -49.2759  -28.5396    5.8392 C.2       1 UNK         0.5000 
     81 O         -49.3006  -28.5207    4.6076 O.2       1 UNK        -0.5238 
     82 H82       -46.3303  -31.6109    6.8130 H         1 UNK         0.0889 
     83 H83       -46.7055  -30.0105    6.1855 H         1 UNK         0.0889 
     84 H84       -47.7699  -31.3842    5.8370 H         1 UNK         0.0889 
     85 H85       -49.6463  -29.9375    8.6760 H         1 UNK         0.3028 
     86 H86       -49.9079  -30.5841    5.9341 H         1 UNK         0.0864 
     87 H87       -51.5046  -28.4209    7.3730 H         1 UNK         0.0720 
     88 H88       -51.7339  -30.0979    7.7470 H         1 UNK         0.0720 
     89 H89       -52.6148  -27.3662    4.9512 H         1 UNK         0.0814 
     90 H90       -54.1461  -28.1430    4.6268 H         1 UNK         0.0814 
     91 H91       -52.6926  -25.7726    6.6799 H         1 UNK         0.1469 
     92 H92       -55.1582  -26.3281   10.1439 H         1 UNK         0.1381 
     93 H93       -55.2561  -29.1953    6.9610 H         1 UNK         0.1206 
     94 H94       -56.8312  -28.0855   10.1623 H         1 UNK         0.0813 
     95 H95       -57.0685  -29.1069    8.7570 H         1 UNK         0.0813 
     96 H96       -56.5652  -31.9306   11.0970 H         1 UNK         0.0638 
     97 H97       -57.6843  -30.6472   10.7200 H         1 UNK         0.0638 
     98 H98       -57.0332  -29.4033   12.7454 H         1 UNK         0.0568 
     99 H99       -56.6676  -32.4943   14.4086 H         1 UNK         0.3450 
    100 H100      -58.3750  -32.7176   14.7003 H         1 UNK         0.3450 
    101 H101      -54.6689  -30.8648   12.7405 H         1 UNK         0.2987 
    102 H102      -53.5967  -29.8371   16.0122 H         1 UNK         0.0766 
    103 H103      -53.8229  -32.2817   15.8247 H         1 UNK         0.0798 
    104 H104      -52.1715  -31.7985   15.4754 H         1 UNK         0.0798 
    105 H105      -53.2545  -32.2603   14.1653 H         1 UNK         0.0798 
    106 H106      -52.4882  -28.5723   14.6390 H         1 UNK         0.3198 
    107 H107      -50.5863  -28.6621   12.4249 H         1 UNK         0.0843 
    108 H108      -52.8846  -28.2364   10.4499 H         1 UNK         0.0831 
    109 H109      -51.5101  -29.3020   10.2303 H         1 UNK         0.0831 
    110 H110      -51.2689  -27.5599   10.2658 H         1 UNK         0.0831 
    111 H111      -51.0845  -26.6975   13.2721 H         1 UNK         0.3133 
    112 H112      -53.0151  -24.4082   13.2463 H         1 UNK         0.0566 
    113 H113      -54.6486  -25.9824   15.2936 H         1 UNK         0.0814 
    114 H114      -55.2742  -25.0262   13.9599 H         1 UNK         0.0814 
    115 H115      -54.4510  -24.2296   15.2883 H         1 UNK         0.0814 
    116 H116      -51.4229  -24.3319   14.7927 H         1 UNK         0.3091 
    117 H117      -50.8945  -25.0188   17.4540 H         1 UNK         0.0702 
    118 H118      -49.2743  -26.7321   18.2982 H         1 UNK         0.0785 
    119 H119      -49.6281  -27.7634   16.9137 H         1 UNK         0.0785 
    120 H120      -50.8674  -27.4313   18.1175 H         1 UNK         0.0785 
    121 H121      -49.2614  -25.3739   15.0613 H         1 UNK         0.2998 
    122 H122      -46.5388  -23.4210   16.4825 H         1 UNK         0.0697 
    123 H123      -45.4098  -24.9905   14.9573 H         1 UNK         0.0825 
    124 H124      -46.8845  -25.9375   14.7738 H         1 UNK         0.0825 
    125 H125      -46.0684  -25.8672   16.3276 H         1 UNK         0.0825 
    126 H126      -47.2769  -23.6669   13.7607 H         1 UNK         0.3029 
    127 H127      -49.1122  -20.5936   13.5362 H         1 UNK         0.0897 
    128 H128      -46.3468  -21.4247   12.4992 H         1 UNK         0.0792 
    129 H129      -46.6868  -19.9758   13.4375 H         1 UNK         0.0792 
    130 H130      -47.3674  -20.1552   11.8276 H         1 UNK         0.0792 
    131 H131      -48.4032  -22.4449   11.5177 H         1 UNK         0.3086 
    132 H132      -51.2462  -24.6157   11.8565 H         1 UNK         0.0583 
    133 H133      -51.9101  -22.7098   10.4394 H         1 UNK         0.1020 
    134 H134      -50.3124  -22.6152    9.7555 H         1 UNK         0.1020 
    135 H135      -53.5329  -24.6127   10.1713 H         1 UNK         0.0694 
    136 H136      -53.7563  -23.7590    8.6557 H         1 UNK         0.0694 
    137 H137      -48.9416  -24.8546   10.2417 H         1 UNK         0.2989 
    138 H138      -46.9439  -26.7249   12.5109 H         1 UNK         0.1055 
    139 H139      -48.3785  -28.4716   11.5719 H         1 UNK         0.0806 
    140 H140      -46.9919  -28.2842   10.5173 H         1 UNK         0.0806 
    141 H141      -48.5521  -27.6088   10.0524 H         1 UNK         0.0806 
    142 H142      -46.7697  -25.7878    9.7564 H         1 UNK         0.3061 
    143 H143      -45.0215  -22.7774   10.5597 H         1 UNK         0.0734 
    144 H144      -44.0243  -25.3889    9.2926 H         1 UNK         0.0832 
    145 H145      -43.3150  -23.7887    9.0702 H         1 UNK         0.0832 
    146 H146      -43.2702  -24.5593   10.6464 H         1 UNK         0.0832 
    147 H147      -45.6978  -23.9928    8.0646 H         1 UNK         0.3156 
    148 H148      -49.0044  -22.7617    7.7769 H         1 UNK         0.0589 
    149 H149      -48.1546  -21.5481    5.8049 H         1 UNK         0.0808 
    150 H150      -46.4925  -21.7072    6.3761 H         1 UNK         0.0808 
    151 H151      -47.6448  -20.7215    7.2658 H         1 UNK         0.0808 
    152 H152      -47.5795  -23.9454    5.7563 H         1 UNK         0.3098 
    153 H153      -48.4520  -26.0758    5.1745 H         1 UNK         0.0720 
    154 H154      -45.9448  -25.9278    5.4267 H         1 UNK         0.0791 
    155 H155      -46.4253  -27.5687    5.0361 H         1 UNK         0.0791 
    156 H156      -45.9887  -27.1506    6.6913 H         1 UNK         0.0791 
    157 H157      -48.7399  -27.6483    7.5935 H         1 UNK         0.3028 
@<TRIPOS>BOND
     1    1    2 1    
     2    1   82 1    
     3    1   83 1    
     4    1   84 1    
     5    2    3 2    
     6    2    4 am   BACKBONE|DICT|INTERRES
     7    4    5 1    
     8    4   85 1    
     9    5    6 1    
    10    5   80 1    
    11    5   86 1    
    12    6    7 1    
    13    6   87 1    
    14    6   88 1    
    15    7    8 1    
    16    8    9 1    
    17    8   89 1    
    18    8   90 1    
    19    9   10 ar   
    20    9   14 ar   
    21   10   11 ar   
    22   10   91 1    
    23   11   12 ar   
    24   11   58 1    
    25   12   13 ar   
    26   12   92 1    
    27   13   14 ar   
    28   13   15 1    
    29   14   93 1    
    30   15   16 1    
    31   15   94 1    
    32   15   95 1    
    33   16   17 1    
    34   17   18 1    
    35   17   96 1    
    36   17   97 1    
    37   18   19 1    
    38   18   22 1    
    39   18   98 1    
    40   19   20 am   BACKBONE|DICT|INTERRES
    41   19   21 2    
    42   20   99 1    
    43   20  100 1    
    44   22   23 am   BACKBONE|DICT|INTERRES
    45   22  101 1    
    46   23   24 2    
    47   23   25 1    
    48   25   26 1    
    49   25   27 1    
    50   25  102 1    
    51   26  103 1    
    52   26  104 1    
    53   26  105 1    
    54   27   28 am   BACKBONE|DICT|INTERRES
    55   27  106 1    
    56   28   29 2    
    57   28   30 1    
    58   30   31 1    
    59   30   32 1    
    60   30  107 1    
    61   31  108 1    
    62   31  109 1    
    63   31  110 1    
    64   32   33 am   BACKBONE|DICT|INTERRES
    65   32  111 1    
    66   33   34 2    
    67   33   35 1    
    68   35   36 1    
    69   35   37 1    
    70   35  112 1    
    71   36  113 1    
    72   36  114 1    
    73   36  115 1    
    74   37   38 am   BACKBONE|DICT|INTERRES
    75   37  116 1    
    76   38   39 2    
    77   38   40 1    
    78   40   41 1    
    79   40   42 1    
    80   40  117 1    
    81   41  118 1    
    82   41  119 1    
    83   41  120 1    
    84   42   43 am   BACKBONE|DICT|INTERRES
    85   42  121 1    
    86   43   44 2    
    87   43   45 1    
    88   45   46 1    
    89   45   47 1    
    90   45  122 1    
    91   46  123 1    
    92   46  124 1    
    93   46  125 1    
    94   47   48 am   BACKBONE|DICT|INTERRES
    95   47  126 1    
    96   48   49 2    
    97   48   50 1    
    98   50   51 1    
    99   50   52 1    
   100   50  127 1    
   101   51  128 1    
   102   51  129 1    
   103   51  130 1    
   104   52   53 am   BACKBONE|DICT|INTERRES
   105   52  131 1    
   106   53   54 2    
   107   53   55 1    
   108   55   56 1    
   109   55   59 1    
   110   55  132 1    
   111   56   57 1    
   112   56  133 1    
   113   56  134 1    
   114   57   58 1    
   115   58  135 1    
   116   58  136 1    
   117   59   60 am   BACKBONE|DICT|INTERRES
   118   59  137 1    
   119   60   61 2    
   120   60   62 1    
   121   62   63 1    
   122   62   64 1    
   123   62  138 1    
   124   63  139 1    
   125   63  140 1    
   126   63  141 1    
   127   64   65 am   BACKBONE|DICT|INTERRES
   128   64  142 1    
   129   65   66 2    
   130   65   67 1    
   131   67   68 1    
   132   67   69 1    
   133   67  143 1    
   134   68  144 1    
   135   68  145 1    
   136   68  146 1    
   137   69   70 am   BACKBONE|DICT|INTERRES
   138   69  147 1    
   139   70   71 2    
   140   70   72 1    
   141   72   73 1    
   142   72   74 1    
   143   72  148 1    
   144   73  149 1    
   145   73  150 1    
   146   73  151 1    
   147   74   75 am   BACKBONE|DICT|INTERRES
   148   74  152 1    
   149   75   76 2    
   150   75   77 1    
   151   77   78 1    
   152   77   79 1    
   153   77  153 1    
   154   78  154 1    
   155   78  155 1    
   156   78  156 1    
   157   79   80 am   BACKBONE|DICT|INTERRES
   158   79  157 1    
   159   80   81 2    
@<TRIPOS>SUBSTRUCTURE
     1 UNK         1 GROUP             0       ****    0 ROOT    
