@<TRIPOS>MOLECULE
3R207
157   159    1
SMALL
USER_CHARGES


@<TRIPOS>ATOM
      1 CA        -48.0749  -27.8691    3.9227 C.3       0 UNK        -0.1975 
      2 C         -48.4703  -26.5304    4.5262 C.2       0 UNK         0.4852 
      3 O         -47.7750  -25.5351    4.3146 O.2       0 UNK        -0.5216 
      4 N         -49.5745  -26.4970    5.2855 N.am      1 UNK        -0.4461 
      5 CA        -50.0812  -25.3134    5.9883 C.3       1 UNK         0.0864 
      6 C6        -51.4023  -25.6004    6.7335 C.3       14 UNK        -0.0898 
      7 S7        -52.7994  -26.0630    5.6542 S.3       14 UNK        -0.2598 
      8 C8        -53.2600  -27.7364    6.2331 C.3       14 UNK         0.0286 
      9 C9        -53.3323  -27.8734    7.7525 C.ar      14 UNK        -0.0844 
     10 C10       -52.5548  -28.8400    8.3946 C.ar      14 UNK        -0.0881 
     11 C11       -52.5744  -28.9615    9.7850 C.ar      14 UNK        -0.0643 
     12 C12       -53.3712  -28.0984   10.5408 C.ar      14 UNK        -0.0930 
     13 C13       -54.1757  -27.1332    9.9154 C.ar      14 UNK        -0.0827 
     14 C14       -54.1537  -27.0386    8.5182 C.ar      14 UNK        -0.1249 
     15 C15       -55.0480  -26.1420   10.6926 C.3       14 UNK         0.0141 
     16 S16       -55.1912  -26.4484   12.4904 S.3       14 UNK        -0.2313 
     17 C17       -56.8657  -27.1625   12.6341 C.3       14 UNK        -0.0915 
     18 CA        -56.9520  -28.7002   12.4289 C.3       13 UNK         0.0968 
     19 C         -57.0411  -29.1092   10.9276 C.2       13 UNK         0.5732 
     20 N         -56.1969  -30.0004   10.4230 N.am      13 UNK        -0.7310 
     21 O         -57.9133  -28.6231   10.2112 O.2       13 UNK        -0.5035 
     22 N         -55.9422  -29.4155   13.2250 N.am      13 UNK        -0.4233 
     23 C         -56.0423  -30.6856   13.6339 C.2       13 UNK         0.4989 
     24 O         -57.0214  -31.3989   13.4119 O.2       13 UNK        -0.4996 
     25 CA        -54.8509  -31.2813   14.4070 C.3       12 UNK         0.0216 
     26 CB        -54.0650  -32.2529   13.5102 C.3       12 UNK        -0.1964 
     27 N         -53.9211  -30.2960   14.9730 N.am      12 UNK        -0.4276 
     28 C         -54.1945  -29.4840   16.0039 C.2       12 UNK         0.5020 
     29 O         -55.3034  -29.4093   16.5340 O.2       12 UNK        -0.5489 
     30 CA        -53.0280  -28.6492   16.5619 C.3       11 UNK         0.0294 
     31 CB        -51.6434  -29.2926   16.3426 C.3       11 UNK        -0.2019 
     32 N         -53.0139  -27.3006   16.0016 N.am      11 UNK        -0.4493 
     33 C         -53.7407  -26.2673   16.4463 C.2       11 UNK         0.4932 
     34 O         -54.5831  -26.3454   17.3423 O.2       11 UNK        -0.5029 
     35 CA        -53.4038  -24.9038   15.8120 C.3       10 UNK         0.0280 
     36 CB        -54.1642  -23.7229   16.4503 C.3       10 UNK        -0.1976 
     37 N         -51.9563  -24.6575   15.8047 N.am      10 UNK        -0.4242 
     38 C         -51.1205  -24.5994   16.8552 C.2       10 UNK         0.5072 
     39 O         -51.4805  -24.6445   18.0321 O.2       10 UNK        -0.5224 
     40 CA        -49.6131  -24.4995   16.5453 C.3       9 UNK         0.0343 
     41 CB        -48.9583  -25.8859   16.6598 C.3       9 UNK        -0.2003 
     42 N         -49.3262  -23.9503   15.2185 N.am      9 UNK        -0.4272 
     43 C         -49.5201  -22.6726   14.8608 C.2       9 UNK         0.4988 
     44 O         -49.8546  -21.7811   15.6412 O.2       9 UNK        -0.5108 
     45 CA        -49.3596  -22.3517   13.3663 C.3       8 UNK         0.0248 
     46 CB        -47.8899  -22.0699   13.0123 C.3       8 UNK        -0.2001 
     47 N         -49.8793  -23.4342   12.5256 N.am      8 UNK        -0.4140 
     48 C         -51.1829  -23.7104   12.3742 C.2       8 UNK         0.5028 
     49 O         -52.0865  -23.0448   12.8781 O.2       8 UNK        -0.5428 
     50 CA        -51.5439  -24.9481   11.5422 C.3       7 UNK         0.0264 
     51 CB        -51.6246  -24.5825   10.0578 C.3       7 UNK        -0.1988 
     52 N         -50.6041  -26.0552   11.7177 N.am      7 UNK        -0.4454 
     53 C         -50.5501  -26.8345   12.8067 C.2       7 UNK         0.5027 
     54 O         -51.3343  -26.7430   13.7522 O.2       7 UNK        -0.5083 
     55 CA        -49.4038  -27.8644   12.8866 C.3       6 UNK         0.0844 
     56 C56       -49.8664  -29.2820   12.4710 C.3       14 UNK        -0.0967 
     57 S57       -50.0115  -29.5269   10.6639 S.3       14 UNK        -0.2604 
     58 C58       -51.7441  -30.0423   10.4573 C.3       14 UNK         0.0134 
     59 N         -48.1850  -27.4526   12.1829 N.am      6 UNK        -0.4116 
     60 C         -47.4737  -26.3429   12.4091 C.2       5 UNK         0.5034 
     61 O         -47.7732  -25.5168   13.2718 O.2       5 UNK        -0.5045 
     62 CA        -46.2566  -26.0663   11.5062 C.3       5 UNK         0.0224 
     63 CB        -44.9486  -26.4654   12.2147 C.3       5 UNK        -0.1978 
     64 N         -46.3251  -26.6357   10.1487 N.am      5 UNK        -0.4737 
     65 C         -46.3124  -27.9215    9.7609 C.2       4 UNK         0.5027 
     66 O         -46.2938  -28.8684   10.5463 O.2       4 UNK        -0.5211 
     67 CA        -46.3518  -28.2100    8.2491 C.3       4 UNK         0.0297 
     68 CB        -47.7190  -28.7825    7.8382 C.3       4 UNK        -0.1993 
     69 N         -46.0625  -27.0193    7.4458 N.am      4 UNK        -0.4486 
     70 C         -44.8260  -26.6099    7.1228 C.2       3 UNK         0.4961 
     71 O         -43.8053  -27.2336    7.4147 O.2       3 UNK        -0.5105 
     72 CA        -44.6875  -25.2843    6.3509 C.3       3 UNK         0.0299 
     73 CB        -44.3966  -25.5532    4.8655 C.3       3 UNK        -0.1972 
     74 N         -45.8635  -24.4181    6.4721 N.am      3 UNK        -0.4305 
     75 C         -46.1634  -23.7072    7.5711 C.2       2 UNK         0.5006 
     76 O         -45.4594  -23.6838    8.5806 O.2       2 UNK        -0.5106 
     77 CA        -47.4929  -22.9275    7.5733 C.3       2 UNK         0.0296 
     78 CB        -47.2720  -21.4844    7.0931 C.3       2 UNK        -0.2002 
     79 N         -48.5511  -23.5533    6.7733 N.am      2 UNK        -0.4032 
     80 C         -49.0305  -24.7862    6.9866 C.2       1 UNK         0.5000 
     81 O         -48.6454  -25.5164    7.9034 O.2       1 UNK        -0.5238 
     82 H82       -48.7822  -28.6574    4.1794 H         1 UNK         0.0889 
     83 H83       -47.0901  -28.1649    4.2834 H         1 UNK         0.0889 
     84 H84       -48.0315  -27.7918    2.8367 H         1 UNK         0.0889 
     85 H85       -50.1070  -27.3422    5.4276 H         1 UNK         0.3028 
     86 H86       -50.2713  -24.5430    5.2380 H         1 UNK         0.0864 
     87 H87       -51.2338  -26.3709    7.4863 H         1 UNK         0.0720 
     88 H88       -51.7240  -24.7069    7.2702 H         1 UNK         0.0720 
     89 H89       -52.5465  -28.4488    5.8167 H         1 UNK         0.0814 
     90 H90       -54.2306  -27.9983    5.8102 H         1 UNK         0.0814 
     91 H91       -51.9228  -29.4990    7.8150 H         1 UNK         0.1469 
     92 H92       -53.3523  -28.1897   11.6161 H         1 UNK         0.1381 
     93 H93       -54.7554  -26.2893    8.0222 H         1 UNK         0.1206 
     94 H94       -54.6300  -25.1441   10.5567 H         1 UNK         0.0813 
     95 H95       -56.0428  -26.1127   10.2462 H         1 UNK         0.0813 
     96 H96       -57.5539  -26.6285   11.9767 H         1 UNK         0.0638 
     97 H97       -57.2083  -26.9314   13.6438 H         1 UNK         0.0638 
     98 H98       -57.9223  -28.9955   12.8327 H         1 UNK         0.0568 
     99 H99       -55.4777  -30.4063   10.9959 H         1 UNK         0.3450 
    100 H100      -56.2687  -30.2467    9.4494 H         1 UNK         0.3450 
    101 H101      -55.1121  -28.8903   13.4530 H         1 UNK         0.2987 
    102 H102      -55.2694  -31.8542   15.2375 H         1 UNK         0.0766 
    103 H103      -53.2675  -32.7498   14.0632 H         1 UNK         0.0798 
    104 H104      -53.6181  -31.7458   12.6556 H         1 UNK         0.0798 
    105 H105      -54.7163  -33.0354   13.1175 H         1 UNK         0.0798 
    106 H106      -52.9791  -30.3030   14.6122 H         1 UNK         0.3198 
    107 H107      -53.1828  -28.5778   17.6410 H         1 UNK         0.0843 
    108 H108      -51.3446  -29.2915   15.2952 H         1 UNK         0.0831 
    109 H109      -51.6252  -30.3243   16.6973 H         1 UNK         0.0831 
    110 H110      -50.8754  -28.7535   16.8981 H         1 UNK         0.0831 
    111 H111      -52.3731  -27.1282   15.2284 H         1 UNK         0.3133 
    112 H112      -53.7070  -24.9644   14.7659 H         1 UNK         0.0566 
    113 H113      -53.9159  -22.7825   15.9581 H         1 UNK         0.0814 
    114 H114      -55.2422  -23.8615   16.3611 H         1 UNK         0.0814 
    115 H115      -53.9363  -23.6176   17.5114 H         1 UNK         0.0814 
    116 H116      -51.5357  -24.6478   14.8859 H         1 UNK         0.3091 
    117 H117      -49.1625  -23.8418   17.2915 H         1 UNK         0.0702 
    118 H118      -47.8856  -25.8371   16.4715 H         1 UNK         0.0785 
    119 H119      -49.3917  -26.5938   15.9532 H         1 UNK         0.0785 
    120 H120      -49.0947  -26.3002   17.6597 H         1 UNK         0.0785 
    121 H121      -48.9602  -24.5940   14.5224 H         1 UNK         0.2998 
    122 H122      -49.9368  -21.4488   13.1547 H         1 UNK         0.0697 
    123 H123      -47.2458  -22.9241   13.2218 H         1 UNK         0.0825 
    124 H124      -47.5078  -21.2283   13.5915 H         1 UNK         0.0825 
    125 H125      -47.7767  -21.8143   11.9586 H         1 UNK         0.0825 
    126 H126      -49.1990  -24.0640   12.1253 H         1 UNK         0.3029 
    127 H127      -52.5290  -25.2843   11.8684 H         1 UNK         0.0897 
    128 H128      -51.9619  -25.4399    9.4805 H         1 UNK         0.0792 
    129 H129      -52.3383  -23.7752    9.8880 H         1 UNK         0.0792 
    130 H130      -50.6601  -24.2625    9.6619 H         1 UNK         0.0792 
    131 H131      -49.9503  -26.2315   10.9681 H         1 UNK         0.3086 
    132 H132      -49.1323  -27.9189   13.9424 H         1 UNK         0.0583 
    133 H133      -49.1385  -30.0102   12.8324 H         1 UNK         0.1020 
    134 H134      -50.7987  -29.5435   12.9718 H         1 UNK         0.1020 
    135 H135      -51.7637  -30.9453    9.8453 H         1 UNK         0.0694 
    136 H136      -52.1866  -30.3246   11.4117 H         1 UNK         0.0694 
    137 H137      -47.8296  -28.0976   11.4839 H         1 UNK         0.2989 
    138 H138      -46.2306  -24.9842   11.3640 H         1 UNK         0.1055 
    139 H139      -44.8542  -25.9539   13.1737 H         1 UNK         0.0806 
    140 H140      -44.0772  -26.1965   11.6176 H         1 UNK         0.0806 
    141 H141      -44.9016  -27.5364   12.4144 H         1 UNK         0.0806 
    142 H142      -46.3828  -25.9481    9.4089 H         1 UNK         0.3061 
    143 H143      -45.5976  -28.9729    8.0442 H         1 UNK         0.0734 
    144 H144      -47.7578  -28.9968    6.7708 H         1 UNK         0.0832 
    145 H145      -47.9172  -29.7193    8.3606 H         1 UNK         0.0832 
    146 H146      -48.5376  -28.1036    8.0777 H         1 UNK         0.0832 
    147 H147      -46.8551  -26.4281    7.2232 H         1 UNK         0.3156 
    148 H148      -43.8290  -24.7528    6.7673 H         1 UNK         0.0589 
    149 H149      -45.1924  -26.1287    4.3924 H         1 UNK         0.0808 
    150 H150      -44.2760  -24.6241    4.3082 H         1 UNK         0.0808 
    151 H151      -43.4736  -26.1226    4.7478 H         1 UNK         0.0808 
    152 H152      -46.5148  -24.4282    5.6941 H         1 UNK         0.3098 
    153 H153      -47.8444  -22.8921    8.6069 H         1 UNK         0.0720 
    154 H154      -48.1827  -20.8917    7.1826 H         1 UNK         0.0791 
    155 H155      -46.9478  -21.4496    6.0522 H         1 UNK         0.0791 
    156 H156      -46.5054  -20.9878    7.6900 H         1 UNK         0.0791 
    157 H157      -48.8971  -23.0231    5.9862 H         1 UNK         0.3028 
@<TRIPOS>BOND
     1    1    2 1    
     2    1   82 1    
     3    1   83 1    
     4    1   84 1    
     5    2    3 2    
     6    2    4 am   BACKBONE|DICT|INTERRES
     7    4    5 1    
     8    4   85 1    
     9    5    6 1    
    10    5   80 1    
    11    5   86 1    
    12    6    7 1    
    13    6   87 1    
    14    6   88 1    
    15    7    8 1    
    16    8    9 1    
    17    8   89 1    
    18    8   90 1    
    19    9   10 ar   
    20    9   14 ar   
    21   10   11 ar   
    22   10   91 1    
    23   11   12 ar   
    24   11   58 1    
    25   12   13 ar   
    26   12   92 1    
    27   13   14 ar   
    28   13   15 1    
    29   14   93 1    
    30   15   16 1    
    31   15   94 1    
    32   15   95 1    
    33   16   17 1    
    34   17   18 1    
    35   17   96 1    
    36   17   97 1    
    37   18   19 1    
    38   18   22 1    
    39   18   98 1    
    40   19   20 am   BACKBONE|DICT|INTERRES
    41   19   21 2    
    42   20   99 1    
    43   20  100 1    
    44   22   23 am   BACKBONE|DICT|INTERRES
    45   22  101 1    
    46   23   24 2    
    47   23   25 1    
    48   25   26 1    
    49   25   27 1    
    50   25  102 1    
    51   26  103 1    
    52   26  104 1    
    53   26  105 1    
    54   27   28 am   BACKBONE|DICT|INTERRES
    55   27  106 1    
    56   28   29 2    
    57   28   30 1    
    58   30   31 1    
    59   30   32 1    
    60   30  107 1    
    61   31  108 1    
    62   31  109 1    
    63   31  110 1    
    64   32   33 am   BACKBONE|DICT|INTERRES
    65   32  111 1    
    66   33   34 2    
    67   33   35 1    
    68   35   36 1    
    69   35   37 1    
    70   35  112 1    
    71   36  113 1    
    72   36  114 1    
    73   36  115 1    
    74   37   38 am   BACKBONE|DICT|INTERRES
    75   37  116 1    
    76   38   39 2    
    77   38   40 1    
    78   40   41 1    
    79   40   42 1    
    80   40  117 1    
    81   41  118 1    
    82   41  119 1    
    83   41  120 1    
    84   42   43 am   BACKBONE|DICT|INTERRES
    85   42  121 1    
    86   43   44 2    
    87   43   45 1    
    88   45   46 1    
    89   45   47 1    
    90   45  122 1    
    91   46  123 1    
    92   46  124 1    
    93   46  125 1    
    94   47   48 am   BACKBONE|DICT|INTERRES
    95   47  126 1    
    96   48   49 2    
    97   48   50 1    
    98   50   51 1    
    99   50   52 1    
   100   50  127 1    
   101   51  128 1    
   102   51  129 1    
   103   51  130 1    
   104   52   53 am   BACKBONE|DICT|INTERRES
   105   52  131 1    
   106   53   54 2    
   107   53   55 1    
   108   55   56 1    
   109   55   59 1    
   110   55  132 1    
   111   56   57 1    
   112   56  133 1    
   113   56  134 1    
   114   57   58 1    
   115   58  135 1    
   116   58  136 1    
   117   59   60 am   BACKBONE|DICT|INTERRES
   118   59  137 1    
   119   60   61 2    
   120   60   62 1    
   121   62   63 1    
   122   62   64 1    
   123   62  138 1    
   124   63  139 1    
   125   63  140 1    
   126   63  141 1    
   127   64   65 am   BACKBONE|DICT|INTERRES
   128   64  142 1    
   129   65   66 2    
   130   65   67 1    
   131   67   68 1    
   132   67   69 1    
   133   67  143 1    
   134   68  144 1    
   135   68  145 1    
   136   68  146 1    
   137   69   70 am   BACKBONE|DICT|INTERRES
   138   69  147 1    
   139   70   71 2    
   140   70   72 1    
   141   72   73 1    
   142   72   74 1    
   143   72  148 1    
   144   73  149 1    
   145   73  150 1    
   146   73  151 1    
   147   74   75 am   BACKBONE|DICT|INTERRES
   148   74  152 1    
   149   75   76 2    
   150   75   77 1    
   151   77   78 1    
   152   77   79 1    
   153   77  153 1    
   154   78  154 1    
   155   78  155 1    
   156   78  156 1    
   157   79   80 am   BACKBONE|DICT|INTERRES
   158   79  157 1    
   159   80   81 2    
@<TRIPOS>SUBSTRUCTURE
     1 UNK         1 GROUP             0       ****    0 ROOT    
