@<TRIPOS>MOLECULE
3R207
157   159    1
SMALL
USER_CHARGES


@<TRIPOS>ATOM
      1 CA        -46.0266  -31.4736    8.0535 C.3       0 UNK        -0.1975 
      2 C         -46.8593  -30.5400    7.1871 C.2       0 UNK         0.4852 
      3 O         -46.9978  -30.7807    5.9865 O.2       0 UNK        -0.5216 
      4 N         -47.4211  -29.4845    7.7897 N.am      1 UNK        -0.4461 
      5 CA        -48.2076  -28.4471    7.1107 C.3       1 UNK         0.0864 
      6 C6        -49.0674  -27.6257    8.1067 C.3       14 UNK        -0.0898 
      7 S7        -50.1396  -28.6887    9.1324 S.3       14 UNK        -0.2598 
      8 C8        -51.6358  -28.8249    8.1042 C.3       14 UNK         0.0286 
      9 C9        -52.6434  -27.7311    8.4220 C.ar      14 UNK        -0.0844 
     10 C10       -52.8163  -26.6407    7.5627 C.ar      14 UNK        -0.0881 
     11 C11       -53.7659  -25.6551    7.8536 C.ar      14 UNK        -0.0643 
     12 C12       -54.5432  -25.7667    9.0106 C.ar      14 UNK        -0.0930 
     13 C13       -54.3695  -26.8454    9.8799 C.ar      14 UNK        -0.0827 
     14 C14       -53.4246  -27.8276    9.5770 C.ar      14 UNK        -0.1249 
     15 C15       -55.1790  -26.9340   11.1610 C.3       14 UNK         0.0141 
     16 S16       -56.6566  -27.9773   10.9667 S.3       14 UNK        -0.2313 
     17 C17       -56.3677  -29.2146   12.2754 C.3       14 UNK        -0.0915 
     18 CA        -56.7122  -28.6753   13.6986 C.3       13 UNK         0.0968 
     19 C         -58.1988  -28.8932   14.1185 C.2       13 UNK         0.5732 
     20 N         -58.4997  -29.0636   15.4006 N.am      13 UNK        -0.7310 
     21 O         -59.0995  -28.8781   13.2829 O.2       13 UNK        -0.5035 
     22 N         -55.7143  -29.0854   14.6989 N.am      13 UNK        -0.4233 
     23 C         -55.4542  -30.3383   15.0933 C.2       13 UNK         0.4989 
     24 O         -56.0608  -31.3337   14.6930 O.2       13 UNK        -0.4996 
     25 CA        -54.2906  -30.4779   16.0914 C.3       12 UNK         0.0216 
     26 CB        -54.0354  -31.9322   16.5428 C.3       12 UNK        -0.1964 
     27 N         -53.0676  -29.8537   15.5700 N.am      12 UNK        -0.4276 
     28 C         -52.3695  -30.2021   14.4773 C.2       12 UNK         0.5020 
     29 O         -52.6301  -31.1784   13.7733 O.2       12 UNK        -0.5489 
     30 CA        -51.1819  -29.3047   14.0795 C.3       11 UNK         0.0294 
     31 CB        -51.5074  -28.5183   12.7987 C.3       11 UNK        -0.2019 
     32 N         -50.7722  -28.3576   15.1190 N.am      11 UNK        -0.4493 
     33 C         -50.1015  -28.6747   16.2350 C.2       11 UNK         0.4932 
     34 O         -49.7581  -29.8197   16.5284 O.2       11 UNK        -0.5029 
     35 CA        -49.7730  -27.5183   17.1897 C.3       10 UNK         0.0280 
     36 CB        -48.5279  -26.7566   16.7055 C.3       10 UNK        -0.1976 
     37 N         -50.8998  -26.5900   17.2999 N.am      10 UNK        -0.4242 
     38 C         -51.8553  -26.6574   18.2374 C.2       10 UNK         0.5072 
     39 O         -51.8709  -27.4944   19.1407 O.2       10 UNK        -0.5224 
     40 CA        -52.9901  -25.6172   18.1670 C.3       9 UNK         0.0343 
     41 CB        -52.6585  -24.4024   19.0487 C.3       9 UNK        -0.2003 
     42 N         -53.2838  -25.1589   16.8071 N.am      9 UNK        -0.4272 
     43 C         -53.8487  -25.9177   15.8588 C.2       9 UNK         0.4988 
     44 O         -54.2247  -27.0764   16.0381 O.2       9 UNK        -0.5108 
     45 CA        -53.9941  -25.3025   14.4570 C.3       8 UNK         0.0248 
     46 CB        -55.3559  -24.6044   14.3181 C.3       8 UNK        -0.2001 
     47 N         -52.9271  -24.3804   14.0480 N.am      8 UNK        -0.4140 
     48 C         -51.6110  -24.6302   14.0800 C.2       8 UNK         0.5028 
     49 O         -51.1199  -25.6512   14.5637 O.2       8 UNK        -0.5428 
     50 CA        -50.6991  -23.5726   13.4401 C.3       7 UNK         0.0264 
     51 CB        -49.2322  -23.7221   13.8842 C.3       7 UNK        -0.1988 
     52 N         -50.7591  -23.6664   11.9828 N.am      7 UNK        -0.4454 
     53 C         -51.7372  -23.1892   11.2029 C.2       7 UNK         0.5027 
     54 O         -52.7136  -22.5813   11.6479 O.2       7 UNK        -0.5083 
     55 CA        -51.5822  -23.4152    9.6806 C.3       6 UNK         0.0844 
     56 C56       -52.7363  -22.7827    8.8588 C.3       14 UNK        -0.0967 
     57 S57       -52.6294  -23.2320    7.0899 S.3       14 UNK        -0.2604 
     58 C58       -53.9579  -24.4673    6.9209 C.3       14 UNK         0.0134 
     59 N         -50.2767  -22.9472    9.1999 N.am      6 UNK        -0.4116 
     60 C         -49.1121  -23.5924    9.3273 C.2       5 UNK         0.5034 
     61 O         -48.9977  -24.6705    9.9139 O.2       5 UNK        -0.5045 
     62 CA        -47.8959  -22.8913    8.6978 C.3       5 UNK         0.0224 
     63 CB        -47.5453  -21.5818    9.4371 C.3       5 UNK        -0.1978 
     64 N         -46.7230  -23.7637    8.5654 N.am      5 UNK        -0.4737 
     65 C         -45.9183  -24.2526    9.5240 C.2       4 UNK         0.5027 
     66 O         -46.0236  -23.9875   10.7219 O.2       4 UNK        -0.5211 
     67 CA        -44.7827  -25.1966    9.0760 C.3       4 UNK         0.0297 
     68 CB        -45.0570  -26.6339    9.5492 C.3       4 UNK        -0.1993 
     69 N         -44.5641  -25.1925    7.6246 N.am      4 UNK        -0.4486 
     70 C         -43.9594  -24.1954    6.9593 C.2       3 UNK         0.4961 
     71 O         -43.4309  -23.2325    7.5162 O.2       3 UNK        -0.5105 
     72 CA        -43.9522  -24.2506    5.4187 C.3       3 UNK         0.0299 
     73 CB        -42.5798  -24.7170    4.9066 C.3       3 UNK        -0.1972 
     74 N         -44.9939  -25.0962    4.8288 N.am      3 UNK        -0.4305 
     75 C         -46.3178  -24.9206    4.9483 C.2       2 UNK         0.5006 
     76 O         -46.8336  -24.0006    5.5839 O.2       2 UNK        -0.5106 
     77 CA        -47.2267  -25.9781    4.2890 C.3       2 UNK         0.0296 
     78 CB        -46.5106  -26.8403    3.2237 C.3       2 UNK        -0.2002 
     79 N         -47.8844  -26.8481    5.2744 N.am      2 UNK        -0.4032 
     80 C         -47.2937  -27.5301    6.2691 C.2       1 UNK         0.5000 
     81 O         -46.0897  -27.4502    6.5355 O.2       1 UNK        -0.5238 
     82 H82       -46.4388  -32.4818    8.0230 H         1 UNK         0.0889 
     83 H83       -46.0003  -31.1492    9.0937 H         1 UNK         0.0889 
     84 H84       -45.0020  -31.5119    7.6847 H         1 UNK         0.0889 
     85 H85       -47.2744  -29.3384    8.7774 H         1 UNK         0.3028 
     86 H86       -48.8840  -28.9522    6.4177 H         1 UNK         0.0864 
     87 H87       -49.6876  -26.8927    7.5876 H         1 UNK         0.0720 
     88 H88       -48.4273  -27.0538    8.7805 H         1 UNK         0.0720 
     89 H89       -51.3689  -28.8178    7.0466 H         1 UNK         0.0814 
     90 H90       -52.0961  -29.7964    8.2902 H         1 UNK         0.0814 
     91 H91       -52.2154  -26.5555    6.6677 H         1 UNK         0.1469 
     92 H92       -55.2784  -25.0079    9.2411 H         1 UNK         0.1381 
     93 H93       -53.2947  -28.6692   10.2431 H         1 UNK         0.1206 
     94 H94       -54.5430  -27.3273   11.9525 H         1 UNK         0.0813 
     95 H95       -55.4887  -25.9396   11.4844 H         1 UNK         0.0813 
     96 H96       -55.3211  -29.5187   12.2130 H         1 UNK         0.0638 
     97 H97       -56.9386  -30.1161   12.0460 H         1 UNK         0.0638 
     98 H98       -56.6077  -27.5907   13.6772 H         1 UNK         0.0568 
     99 H99       -59.4626  -29.1945   15.6675 H         1 UNK         0.3450 
    100 H100      -57.7759  -29.0670   16.1007 H         1 UNK         0.3450 
    101 H101      -55.1817  -28.3330   15.1311 H         1 UNK         0.2987 
    102 H102      -54.5729  -29.9061   16.9769 H         1 UNK         0.0766 
    103 H103      -53.2160  -31.9861   17.2595 H         1 UNK         0.0798 
    104 H104      -54.9192  -32.3484   17.0278 H         1 UNK         0.0798 
    105 H105      -53.7905  -32.5847   15.7043 H         1 UNK         0.0798 
    106 H106      -52.7917  -28.9968   16.0313 H         1 UNK         0.3198 
    107 H107      -50.3367  -29.9634   13.8687 H         1 UNK         0.0843 
    108 H108      -51.7613  -29.1944   11.9817 H         1 UNK         0.0831 
    109 H109      -50.6561  -27.9223   12.4682 H         1 UNK         0.0831 
    110 H110      -52.3506  -27.8434   12.9430 H         1 UNK         0.0831 
    111 H111      -50.9605  -27.3719   14.9315 H         1 UNK         0.3133 
    112 H112      -49.5454  -27.9421   18.1703 H         1 UNK         0.0566 
    113 H113      -47.6675  -27.4232   16.6329 H         1 UNK         0.0814 
    114 H114      -48.2604  -25.9565   17.3959 H         1 UNK         0.0814 
    115 H115      -48.6792  -26.3119   15.7211 H         1 UNK         0.0814 
    116 H116      -51.0033  -25.9217   16.5434 H         1 UNK         0.3091 
    117 H117      -53.8911  -26.0898   18.5643 H         1 UNK         0.0702 
    118 H118      -53.4869  -23.6943   19.0771 H         1 UNK         0.0785 
    119 H119      -51.7741  -23.8728   18.6921 H         1 UNK         0.0785 
    120 H120      -52.4618  -24.7092   20.0771 H         1 UNK         0.0785 
    121 H121      -53.0092  -24.2170   16.5693 H         1 UNK         0.2998 
    122 H122      -53.9646  -26.1344   13.7557 H         1 UNK         0.0697 
    123 H123      -55.5291  -24.2647   13.2970 H         1 UNK         0.0825 
    124 H124      -55.4309  -23.7366   14.9746 H         1 UNK         0.0825 
    125 H125      -56.1732  -25.2788   14.5774 H         1 UNK         0.0825 
    126 H126      -53.2205  -23.5344   13.5734 H         1 UNK         0.3029 
    127 H127      -51.0487  -22.5865   13.7539 H         1 UNK         0.0897 
    128 H128      -48.8084  -24.6768   13.5686 H         1 UNK         0.0792 
    129 H129      -48.6098  -22.9294   13.4686 H         1 UNK         0.0792 
    130 H130      -49.1444  -23.6687   14.9702 H         1 UNK         0.0792 
    131 H131      -50.0096  -24.1779   11.5242 H         1 UNK         0.3086 
    132 H132      -51.6302  -24.4967    9.5335 H         1 UNK         0.0583 
    133 H133      -53.7088  -23.0843    9.2501 H         1 UNK         0.1020 
    134 H134      -52.7126  -21.6945    8.9413 H         1 UNK         0.1020 
    135 H135      -54.9196  -23.9846    7.1023 H         1 UNK         0.0694 
    136 H136      -53.9843  -24.8179    5.8882 H         1 UNK         0.0694 
    137 H137      -50.2874  -22.0612    8.7167 H         1 UNK         0.2989 
    138 H138      -48.1772  -22.6343    7.6748 H         1 UNK         0.1055 
    139 H139      -48.3541  -20.8546    9.3598 H         1 UNK         0.0806 
    140 H140      -46.6546  -21.1153    9.0160 H         1 UNK         0.0806 
    141 H141      -47.3657  -21.7481   10.4998 H         1 UNK         0.0806 
    142 H142      -46.5365  -24.0557    7.6114 H         1 UNK         0.3061 
    143 H143      -43.8659  -24.8544    9.5608 H         1 UNK         0.0734 
    144 H144      -45.1105  -26.6801   10.6376 H         1 UNK         0.0832 
    145 H145      -46.0042  -27.0107    9.1651 H         1 UNK         0.0832 
    146 H146      -44.2688  -27.3173    9.2330 H         1 UNK         0.0832 
    147 H147      -44.9824  -25.9590    7.1010 H         1 UNK         0.3156 
    148 H148      -44.1209  -23.2326    5.0614 H         1 UNK         0.0589 
    149 H149      -42.3636  -25.7424    5.2097 H         1 UNK         0.0808 
    150 H150      -42.5221  -24.6672    3.8191 H         1 UNK         0.0808 
    151 H151      -41.7808  -24.0864    5.2995 H         1 UNK         0.0808 
    152 H152      -44.6763  -25.9099    4.3221 H         1 UNK         0.3098 
    153 H153      -48.0182  -25.4219    3.7844 H         1 UNK         0.0720 
    154 H154      -47.2231  -27.4753    2.6970 H         1 UNK         0.0791 
    155 H155      -46.0249  -26.2186    2.4700 H         1 UNK         0.0791 
    156 H156      -45.7543  -27.4950    3.6588 H         1 UNK         0.0791 
    157 H157      -48.8836  -26.9436    5.1596 H         1 UNK         0.3028 
@<TRIPOS>BOND
     1    1    2 1    
     2    1   82 1    
     3    1   83 1    
     4    1   84 1    
     5    2    3 2    
     6    2    4 am   BACKBONE|DICT|INTERRES
     7    4    5 1    
     8    4   85 1    
     9    5    6 1    
    10    5   80 1    
    11    5   86 1    
    12    6    7 1    
    13    6   87 1    
    14    6   88 1    
    15    7    8 1    
    16    8    9 1    
    17    8   89 1    
    18    8   90 1    
    19    9   10 ar   
    20    9   14 ar   
    21   10   11 ar   
    22   10   91 1    
    23   11   12 ar   
    24   11   58 1    
    25   12   13 ar   
    26   12   92 1    
    27   13   14 ar   
    28   13   15 1    
    29   14   93 1    
    30   15   16 1    
    31   15   94 1    
    32   15   95 1    
    33   16   17 1    
    34   17   18 1    
    35   17   96 1    
    36   17   97 1    
    37   18   19 1    
    38   18   22 1    
    39   18   98 1    
    40   19   20 am   BACKBONE|DICT|INTERRES
    41   19   21 2    
    42   20   99 1    
    43   20  100 1    
    44   22   23 am   BACKBONE|DICT|INTERRES
    45   22  101 1    
    46   23   24 2    
    47   23   25 1    
    48   25   26 1    
    49   25   27 1    
    50   25  102 1    
    51   26  103 1    
    52   26  104 1    
    53   26  105 1    
    54   27   28 am   BACKBONE|DICT|INTERRES
    55   27  106 1    
    56   28   29 2    
    57   28   30 1    
    58   30   31 1    
    59   30   32 1    
    60   30  107 1    
    61   31  108 1    
    62   31  109 1    
    63   31  110 1    
    64   32   33 am   BACKBONE|DICT|INTERRES
    65   32  111 1    
    66   33   34 2    
    67   33   35 1    
    68   35   36 1    
    69   35   37 1    
    70   35  112 1    
    71   36  113 1    
    72   36  114 1    
    73   36  115 1    
    74   37   38 am   BACKBONE|DICT|INTERRES
    75   37  116 1    
    76   38   39 2    
    77   38   40 1    
    78   40   41 1    
    79   40   42 1    
    80   40  117 1    
    81   41  118 1    
    82   41  119 1    
    83   41  120 1    
    84   42   43 am   BACKBONE|DICT|INTERRES
    85   42  121 1    
    86   43   44 2    
    87   43   45 1    
    88   45   46 1    
    89   45   47 1    
    90   45  122 1    
    91   46  123 1    
    92   46  124 1    
    93   46  125 1    
    94   47   48 am   BACKBONE|DICT|INTERRES
    95   47  126 1    
    96   48   49 2    
    97   48   50 1    
    98   50   51 1    
    99   50   52 1    
   100   50  127 1    
   101   51  128 1    
   102   51  129 1    
   103   51  130 1    
   104   52   53 am   BACKBONE|DICT|INTERRES
   105   52  131 1    
   106   53   54 2    
   107   53   55 1    
   108   55   56 1    
   109   55   59 1    
   110   55  132 1    
   111   56   57 1    
   112   56  133 1    
   113   56  134 1    
   114   57   58 1    
   115   58  135 1    
   116   58  136 1    
   117   59   60 am   BACKBONE|DICT|INTERRES
   118   59  137 1    
   119   60   61 2    
   120   60   62 1    
   121   62   63 1    
   122   62   64 1    
   123   62  138 1    
   124   63  139 1    
   125   63  140 1    
   126   63  141 1    
   127   64   65 am   BACKBONE|DICT|INTERRES
   128   64  142 1    
   129   65   66 2    
   130   65   67 1    
   131   67   68 1    
   132   67   69 1    
   133   67  143 1    
   134   68  144 1    
   135   68  145 1    
   136   68  146 1    
   137   69   70 am   BACKBONE|DICT|INTERRES
   138   69  147 1    
   139   70   71 2    
   140   70   72 1    
   141   72   73 1    
   142   72   74 1    
   143   72  148 1    
   144   73  149 1    
   145   73  150 1    
   146   73  151 1    
   147   74   75 am   BACKBONE|DICT|INTERRES
   148   74  152 1    
   149   75   76 2    
   150   75   77 1    
   151   77   78 1    
   152   77   79 1    
   153   77  153 1    
   154   78  154 1    
   155   78  155 1    
   156   78  156 1    
   157   79   80 am   BACKBONE|DICT|INTERRES
   158   79  157 1    
   159   80   81 2    
@<TRIPOS>SUBSTRUCTURE
     1 UNK         1 GROUP             0       ****    0 ROOT    
