@<TRIPOS>MOLECULE
3R207
157   159    1
SMALL
USER_CHARGES


@<TRIPOS>ATOM
      1 CA        -48.5028  -29.2764    9.5684 C.3       0 UNK        -0.1975 
      2 C         -49.2481  -28.4110    8.5634 C.2       0 UNK         0.4852 
      3 O         -48.6494  -27.5279    7.9439 O.2       0 UNK        -0.5216 
      4 N         -50.5537  -28.6662    8.3989 N.am      1 UNK        -0.4461 
      5 CA        -51.4624  -27.9797    7.4733 C.3       1 UNK         0.0864 
      6 C6        -51.5768  -26.4623    7.8001 C.3       14 UNK        -0.0898 
      7 S7        -53.2650  -25.8122    7.5890 S.3       14 UNK        -0.2598 
      8 C8        -53.0440  -24.0688    8.1065 C.3       14 UNK         0.0286 
      9 C9        -52.4995  -23.8630    9.5235 C.ar      14 UNK        -0.0844 
     10 C10       -51.7914  -22.6920    9.8183 C.ar      14 UNK        -0.0881 
     11 C11       -51.2619  -22.4760   11.0958 C.ar      14 UNK        -0.0643 
     12 C12       -51.4410  -23.4426   12.0875 C.ar      14 UNK        -0.0930 
     13 C13       -52.1170  -24.6283   11.7987 C.ar      14 UNK        -0.0827 
     14 C14       -52.6771  -24.8157   10.5340 C.ar      14 UNK        -0.1249 
     15 C15       -52.1903  -25.7376   12.8287 C.3       14 UNK         0.0141 
     16 S16       -50.6165  -26.6560   12.8691 S.3       14 UNK        -0.2313 
     17 C17       -51.0480  -28.1067   13.8804 C.3       14 UNK        -0.0915 
     18 CA        -51.4527  -29.3248   13.0082 C.3       13 UNK         0.0968 
     19 C         -51.5897  -30.6196   13.8602 C.2       13 UNK         0.5732 
     20 N         -52.7236  -31.3130   13.8633 N.am      13 UNK        -0.7310 
     21 O         -50.6371  -31.0137   14.5280 O.2       13 UNK        -0.5035 
     22 N         -52.6447  -29.0299   12.2037 N.am      13 UNK        -0.4233 
     23 C         -52.8824  -29.4998   10.9737 C.2       13 UNK         0.4989 
     24 O         -52.0707  -30.1690   10.3306 O.2       13 UNK        -0.4996 
     25 CA        -54.2497  -29.1537   10.3420 C.3       12 UNK         0.0216 
     26 CB        -54.7347  -30.2454    9.3648 C.3       12 UNK        -0.1964 
     27 N         -55.3043  -28.8300   11.3162 N.am      12 UNK        -0.4276 
     28 C         -55.7439  -29.6023   12.3211 C.2       12 UNK         0.5020 
     29 O         -55.3244  -30.7367   12.5628 O.2       12 UNK        -0.5489 
     30 CA        -56.7849  -28.9679   13.2597 C.3       11 UNK         0.0294 
     31 CB        -58.1000  -29.7643   13.2344 C.3       11 UNK        -0.2019 
     32 N         -56.2937  -28.8793   14.6392 N.am      11 UNK        -0.4493 
     33 C         -55.1801  -28.2400   15.0234 C.2       11 UNK         0.4932 
     34 O         -54.4268  -27.6504   14.2471 O.2       11 UNK        -0.5029 
     35 CA        -54.8332  -28.3149   16.5202 C.3       10 UNK         0.0280 
     36 CB        -54.0815  -29.6205   16.8278 C.3       10 UNK        -0.1976 
     37 N         -54.0134  -27.1879   16.9731 N.am      10 UNK        -0.4242 
     38 C         -54.4050  -25.9065   17.0396 C.2       10 UNK         0.5072 
     39 O         -55.5363  -25.5238   16.7363 O.2       10 UNK        -0.5224 
     40 CA        -53.3850  -24.8764   17.5714 C.3       9 UNK         0.0343 
     41 CB        -53.8907  -24.2415   18.8790 C.3       9 UNK        -0.2003 
     42 N         -52.0608  -25.4605   17.8171 N.am      9 UNK        -0.4272 
     43 C         -51.0499  -25.4549   16.9392 C.2       9 UNK         0.4988 
     44 O         -51.0781  -24.8580   15.8622 O.2       9 UNK        -0.5108 
     45 CA        -49.8054  -26.2649   17.3275 C.3       8 UNK         0.0248 
     46 CB        -50.1546  -27.7251   17.6946 C.3       8 UNK        -0.2001 
     47 N         -48.8580  -26.2452   16.2147 N.am      8 UNK        -0.4140 
     48 C         -47.5463  -26.4879   16.3054 C.2       8 UNK         0.5028 
     49 O         -46.9701  -26.7348   17.3664 O.2       8 UNK        -0.5428 
     50 CA        -46.7289  -26.4828   15.0024 C.3       7 UNK         0.0264 
     51 CB        -46.5162  -27.9220   14.5042 C.3       7 UNK        -0.1988 
     52 N         -47.3187  -25.6989   13.9161 N.am      7 UNK        -0.4454 
     53 C         -47.3529  -24.3637   13.8408 C.2       7 UNK         0.5027 
     54 O         -46.9494  -23.6263   14.7422 O.2       7 UNK        -0.5083 
     55 CA        -47.8829  -23.7603   12.5158 C.3       6 UNK         0.0844 
     56 C56       -48.1096  -22.2268   12.6254 C.3       14 UNK        -0.0967 
     57 S57       -48.6966  -21.4439   11.0794 S.3       14 UNK        -0.2604 
     58 C58       -50.4748  -21.2105   11.3960 C.3       14 UNK         0.0134 
     59 N         -47.0283  -24.1062   11.3719 N.am      6 UNK        -0.4116 
     60 C         -46.9217  -25.3143   10.8035 C.2       5 UNK         0.5034 
     61 O         -47.5036  -26.3204   11.2109 O.2       5 UNK        -0.5045 
     62 CA        -46.0667  -25.4028    9.5336 C.3       5 UNK         0.0224 
     63 CB        -45.3499  -26.7592    9.4080 C.3       5 UNK        -0.1978 
     64 N         -46.9556  -25.2275    8.3910 N.am      5 UNK        -0.4737 
     65 C         -47.2659  -24.0452    7.8466 C.2       4 UNK         0.5027 
     66 O         -46.7257  -22.9856    8.1684 O.2       4 UNK        -0.5211 
     67 CA        -48.3772  -24.0609    6.7816 C.3       4 UNK         0.0297 
     68 CB        -48.4846  -22.7434    5.9850 C.3       4 UNK        -0.1993 
     69 N         -48.2843  -25.2240    5.8903 N.am      4 UNK        -0.4486 
     70 C         -47.3152  -25.5098    5.0062 C.2       3 UNK         0.4961 
     71 O         -46.3422  -24.7887    4.7844 O.2       3 UNK        -0.5105 
     72 CA        -47.4534  -26.8349    4.2301 C.3       3 UNK         0.0299 
     73 CB        -46.5784  -27.9229    4.8737 C.3       3 UNK        -0.1972 
     74 N         -48.8362  -27.3154    4.1569 N.am      3 UNK        -0.4305 
     75 C         -49.8128  -26.7691    3.4195 C.2       2 UNK         0.5006 
     76 O         -49.6281  -25.8602    2.6100 O.2       2 UNK        -0.5106 
     77 CA        -51.2481  -27.2808    3.6580 C.3       2 UNK         0.0296 
     78 CB        -51.5276  -28.5764    2.8705 C.3       2 UNK        -0.2002 
     79 N         -51.5945  -27.4046    5.0845 N.am      2 UNK        -0.4032 
     80 C         -51.0987  -28.2566    5.9950 C.2       1 UNK         0.5000 
     81 O         -50.3464  -29.1916    5.7051 O.2       1 UNK        -0.5238 
     82 H82       -49.1056  -30.1225    9.8983 H         1 UNK         0.0889 
     83 H83       -48.2374  -28.6894   10.4461 H         1 UNK         0.0889 
     84 H84       -47.5873  -29.6651    9.1241 H         1 UNK         0.0889 
     85 H85       -50.9855  -29.3958    8.9607 H         1 UNK         0.3028 
     86 H86       -52.4326  -28.4514    7.6355 H         1 UNK         0.0864 
     87 H87       -50.8788  -25.8621    7.2172 H         1 UNK         0.0720 
     88 H88       -51.2889  -26.2941    8.8377 H         1 UNK         0.0720 
     89 H89       -54.0066  -23.5618    8.0308 H         1 UNK         0.0814 
     90 H90       -52.3836  -23.5850    7.3850 H         1 UNK         0.0814 
     91 H91       -51.6406  -21.9476    9.0482 H         1 UNK         0.1469 
     92 H92       -51.0162  -23.2972   13.0714 H         1 UNK         0.1381 
     93 H93       -53.2108  -25.7324   10.3289 H         1 UNK         0.1206 
     94 H94       -52.4303  -25.3329   13.8105 H         1 UNK         0.0813 
     95 H95       -53.0039  -26.4114   12.5703 H         1 UNK         0.0813 
     96 H96       -51.8342  -27.8425   14.5883 H         1 UNK         0.0638 
     97 H97       -50.1667  -28.3451   14.4779 H         1 UNK         0.0638 
     98 H98       -50.6209  -29.5184   12.3282 H         1 UNK         0.0568 
     99 H99       -52.7773  -32.1531   14.4154 H         1 UNK         0.3450 
    100 H100      -53.5288  -31.0214   13.3176 H         1 UNK         0.3450 
    101 H101      -53.3709  -28.5131   12.6867 H         1 UNK         0.2987 
    102 H102      -54.0836  -28.2440    9.7628 H         1 UNK         0.0766 
    103 H103      -54.0181  -30.4010    8.5575 H         1 UNK         0.0798 
    104 H104      -55.6832  -29.9714    8.9031 H         1 UNK         0.0798 
    105 H105      -54.8706  -31.2036    9.8675 H         1 UNK         0.0798 
    106 H106      -55.6958  -27.9013   11.2330 H         1 UNK         0.3198 
    107 H107      -56.9969  -27.9510   12.9224 H         1 UNK         0.0843 
    108 H108      -57.9616  -30.7836   13.5980 H         1 UNK         0.0831 
    109 H109      -58.4945  -29.8326   12.2196 H         1 UNK         0.0831 
    110 H110      -58.8664  -29.2890   13.8470 H         1 UNK         0.0831 
    111 H111      -56.8303  -29.3732   15.3376 H         1 UNK         0.3133 
    112 H112      -55.7645  -28.3028   17.0902 H         1 UNK         0.0566 
    113 H113      -53.1142  -29.6561   16.3260 H         1 UNK         0.0814 
    114 H114      -54.6492  -30.4918   16.4980 H         1 UNK         0.0814 
    115 H115      -53.9078  -29.7367   17.8978 H         1 UNK         0.0814 
    116 H116      -53.0590  -27.3981   17.2161 H         1 UNK         0.3091 
    117 H117      -53.3074  -24.0861   16.8216 H         1 UNK         0.0702 
    118 H118      -53.1998  -23.4807   19.2427 H         1 UNK         0.0785 
    119 H119      -54.0183  -24.9847   19.6672 H         1 UNK         0.0785 
    120 H120      -54.8556  -23.7544   18.7311 H         1 UNK         0.0785 
    121 H121      -51.9385  -25.9370   18.6998 H         1 UNK         0.2998 
    122 H122      -49.3488  -25.7716   18.1881 H         1 UNK         0.0697 
    123 H123      -50.6759  -28.2342   16.8838 H         1 UNK         0.0825 
    124 H124      -50.7889  -27.7784   18.5796 H         1 UNK         0.0825 
    125 H125      -49.2589  -28.3033   17.9216 H         1 UNK         0.0825 
    126 H126      -49.2585  -25.9772   15.3232 H         1 UNK         0.3029 
    127 H127      -45.7521  -26.0531   15.2353 H         1 UNK         0.0897 
    128 H128      -47.4602  -28.3977   14.2340 H         1 UNK         0.0792 
    129 H129      -46.0476  -28.5382   15.2730 H         1 UNK         0.0792 
    130 H130      -45.8665  -27.9472   13.6289 H         1 UNK         0.0792 
    131 H131      -47.6187  -26.2100   13.0879 H         1 UNK         0.3086 
    132 H132      -48.8531  -24.2227   12.3347 H         1 UNK         0.0583 
    133 H133      -48.8101  -22.0051   13.4325 H         1 UNK         0.1020 
    134 H134      -47.1781  -21.7283   12.9012 H         1 UNK         0.1020 
    135 H135      -50.6389  -20.8885   12.4254 H         1 UNK         0.0694 
    136 H136      -50.8354  -20.3962   10.7657 H         1 UNK         0.0694 
    137 H137      -46.5545  -23.3284   10.9352 H         1 UNK         0.2989 
    138 H138      -45.3072  -24.6179    9.5550 H         1 UNK         0.1055 
    139 H139      -46.0548  -27.5883    9.3422 H         1 UNK         0.0806 
    140 H140      -44.7087  -26.9426   10.2710 H         1 UNK         0.0806 
    141 H141      -44.7188  -26.7901    8.5198 H         1 UNK         0.0806 
    142 H142      -47.5007  -26.0458    8.1223 H         1 UNK         0.3061 
    143 H143      -49.3083  -24.1722    7.3379 H         1 UNK         0.0734 
    144 H144      -47.5598  -22.5107    5.4567 H         1 UNK         0.0832 
    145 H145      -49.2899  -22.7870    5.2518 H         1 UNK         0.0832 
    146 H146      -48.6963  -21.9047    6.6495 H         1 UNK         0.0832 
    147 H147      -48.9742  -25.9449    6.0446 H         1 UNK         0.3156 
    148 H148      -47.0960  -26.6629    3.2127 H         1 UNK         0.0589 
    149 H149      -46.6092  -28.8489    4.2993 H         1 UNK         0.0808 
    150 H150      -45.5354  -27.6069    4.9230 H         1 UNK         0.0808 
    151 H151      -46.8983  -28.1485    5.8920 H         1 UNK         0.0808 
    152 H152      -49.0955  -28.0812    4.7749 H         1 UNK         0.3098 
    153 H153      -51.9190  -26.5153    3.2645 H         1 UNK         0.0720 
    154 H154      -50.8608  -29.3890    3.1593 H         1 UNK         0.0791 
    155 H155      -51.3897  -28.4144    1.8007 H         1 UNK         0.0791 
    156 H156      -52.5530  -28.9156    3.0172 H         1 UNK         0.0791 
    157 H157      -52.2097  -26.6803    5.4343 H         1 UNK         0.3028 
@<TRIPOS>BOND
     1    1    2 1    
     2    1   82 1    
     3    1   83 1    
     4    1   84 1    
     5    2    3 2    
     6    2    4 am   BACKBONE|DICT|INTERRES
     7    4    5 1    
     8    4   85 1    
     9    5    6 1    
    10    5   80 1    
    11    5   86 1    
    12    6    7 1    
    13    6   87 1    
    14    6   88 1    
    15    7    8 1    
    16    8    9 1    
    17    8   89 1    
    18    8   90 1    
    19    9   10 ar   
    20    9   14 ar   
    21   10   11 ar   
    22   10   91 1    
    23   11   12 ar   
    24   11   58 1    
    25   12   13 ar   
    26   12   92 1    
    27   13   14 ar   
    28   13   15 1    
    29   14   93 1    
    30   15   16 1    
    31   15   94 1    
    32   15   95 1    
    33   16   17 1    
    34   17   18 1    
    35   17   96 1    
    36   17   97 1    
    37   18   19 1    
    38   18   22 1    
    39   18   98 1    
    40   19   20 am   BACKBONE|DICT|INTERRES
    41   19   21 2    
    42   20   99 1    
    43   20  100 1    
    44   22   23 am   BACKBONE|DICT|INTERRES
    45   22  101 1    
    46   23   24 2    
    47   23   25 1    
    48   25   26 1    
    49   25   27 1    
    50   25  102 1    
    51   26  103 1    
    52   26  104 1    
    53   26  105 1    
    54   27   28 am   BACKBONE|DICT|INTERRES
    55   27  106 1    
    56   28   29 2    
    57   28   30 1    
    58   30   31 1    
    59   30   32 1    
    60   30  107 1    
    61   31  108 1    
    62   31  109 1    
    63   31  110 1    
    64   32   33 am   BACKBONE|DICT|INTERRES
    65   32  111 1    
    66   33   34 2    
    67   33   35 1    
    68   35   36 1    
    69   35   37 1    
    70   35  112 1    
    71   36  113 1    
    72   36  114 1    
    73   36  115 1    
    74   37   38 am   BACKBONE|DICT|INTERRES
    75   37  116 1    
    76   38   39 2    
    77   38   40 1    
    78   40   41 1    
    79   40   42 1    
    80   40  117 1    
    81   41  118 1    
    82   41  119 1    
    83   41  120 1    
    84   42   43 am   BACKBONE|DICT|INTERRES
    85   42  121 1    
    86   43   44 2    
    87   43   45 1    
    88   45   46 1    
    89   45   47 1    
    90   45  122 1    
    91   46  123 1    
    92   46  124 1    
    93   46  125 1    
    94   47   48 am   BACKBONE|DICT|INTERRES
    95   47  126 1    
    96   48   49 2    
    97   48   50 1    
    98   50   51 1    
    99   50   52 1    
   100   50  127 1    
   101   51  128 1    
   102   51  129 1    
   103   51  130 1    
   104   52   53 am   BACKBONE|DICT|INTERRES
   105   52  131 1    
   106   53   54 2    
   107   53   55 1    
   108   55   56 1    
   109   55   59 1    
   110   55  132 1    
   111   56   57 1    
   112   56  133 1    
   113   56  134 1    
   114   57   58 1    
   115   58  135 1    
   116   58  136 1    
   117   59   60 am   BACKBONE|DICT|INTERRES
   118   59  137 1    
   119   60   61 2    
   120   60   62 1    
   121   62   63 1    
   122   62   64 1    
   123   62  138 1    
   124   63  139 1    
   125   63  140 1    
   126   63  141 1    
   127   64   65 am   BACKBONE|DICT|INTERRES
   128   64  142 1    
   129   65   66 2    
   130   65   67 1    
   131   67   68 1    
   132   67   69 1    
   133   67  143 1    
   134   68  144 1    
   135   68  145 1    
   136   68  146 1    
   137   69   70 am   BACKBONE|DICT|INTERRES
   138   69  147 1    
   139   70   71 2    
   140   70   72 1    
   141   72   73 1    
   142   72   74 1    
   143   72  148 1    
   144   73  149 1    
   145   73  150 1    
   146   73  151 1    
   147   74   75 am   BACKBONE|DICT|INTERRES
   148   74  152 1    
   149   75   76 2    
   150   75   77 1    
   151   77   78 1    
   152   77   79 1    
   153   77  153 1    
   154   78  154 1    
   155   78  155 1    
   156   78  156 1    
   157   79   80 am   BACKBONE|DICT|INTERRES
   158   79  157 1    
   159   80   81 2    
@<TRIPOS>SUBSTRUCTURE
     1 UNK         1 GROUP             0       ****    0 ROOT    
