@<TRIPOS>MOLECULE
3R207
157   159    1
SMALL
USER_CHARGES


@<TRIPOS>ATOM
      1 CA        -45.2098  -28.7194    7.2148 C.3       0 UNK        -0.1975 
      2 C         -46.5040  -28.1512    6.6545 C.2       0 UNK         0.4852 
      3 O         -47.0151  -27.1638    7.1863 O.2       0 UNK        -0.5216 
      4 N         -47.0257  -28.7514    5.5746 N.am      1 UNK        -0.4461 
      5 CA        -48.3002  -28.4593    4.8880 C.3       1 UNK         0.0864 
      6 C6        -49.5469  -28.6375    5.7947 C.3       14 UNK        -0.0898 
      7 S7        -49.6639  -30.3280    6.4724 S.3       14 UNK        -0.2598 
      8 C8        -51.4537  -30.4849    6.7576 C.3       14 UNK         0.0286 
      9 C9        -51.9017  -29.7022    7.9830 C.ar      14 UNK        -0.0844 
     10 C10       -52.3921  -28.3994    7.8533 C.ar      14 UNK        -0.0881 
     11 C11       -52.8242  -27.6873    8.9768 C.ar      14 UNK        -0.0643 
     12 C12       -52.7768  -28.2942   10.2342 C.ar      14 UNK        -0.0930 
     13 C13       -52.2851  -29.5938   10.3773 C.ar      14 UNK        -0.0827 
     14 C14       -51.8429  -30.2909    9.2493 C.ar      14 UNK        -0.1249 
     15 C15       -52.2331  -30.2425   11.7503 C.3       14 UNK         0.0141 
     16 S16       -53.4679  -31.5733   11.8873 S.3       14 UNK        -0.2313 
     17 C17       -54.2139  -31.2564   13.5208 C.3       14 UNK        -0.0915 
     18 CA        -55.6317  -30.6362   13.4018 C.3       13 UNK         0.0968 
     19 C         -56.3886  -30.6790   14.7624 C.2       13 UNK         0.5732 
     20 N         -56.8725  -29.5641   15.2963 N.am      13 UNK        -0.7310 
     21 O         -56.5543  -31.7510   15.3399 O.2       13 UNK        -0.5035 
     22 N         -55.5913  -29.3050   12.7724 N.am      13 UNK        -0.4233 
     23 C         -56.5899  -28.7513   12.0760 C.2       13 UNK         0.4989 
     24 O         -57.6613  -29.3152   11.8469 O.2       13 UNK        -0.4996 
     25 CA        -56.3591  -27.3043   11.5952 C.3       12 UNK         0.0216 
     26 CB        -57.4503  -26.8178   10.6234 C.3       12 UNK        -0.1964 
     27 N         -56.2751  -26.3744   12.7259 N.am      12 UNK        -0.4276 
     28 C         -55.2118  -26.2341   13.5262 C.2       12 UNK         0.5020 
     29 O         -54.1510  -26.8431   13.3597 O.2       12 UNK        -0.5489 
     30 CA        -55.3849  -25.3167   14.7427 C.3       11 UNK         0.0294 
     31 CB        -56.2705  -26.0052   15.8035 C.3       11 UNK        -0.2019 
     32 N         -54.0607  -25.0312   15.2860 N.am      11 UNK        -0.4493 
     33 C         -53.7551  -24.1999   16.2899 C.2       11 UNK         0.4932 
     34 O         -54.5851  -23.4952   16.8668 O.2       11 UNK        -0.5029 
     35 CA        -52.2726  -24.1275   16.7116 C.3       10 UNK         0.0280 
     36 CB        -52.0855  -23.7945   18.2070 C.3       10 UNK        -0.1976 
     37 N         -51.5003  -25.3144   16.3257 N.am      10 UNK        -0.4242 
     38 C         -51.6252  -26.5723   16.7746 C.2       10 UNK         0.5072 
     39 O         -52.3933  -26.9145   17.6743 O.2       10 UNK        -0.5224 
     40 CA        -50.7605  -27.6437   16.0844 C.3       9 UNK         0.0343 
     41 CB        -51.5822  -28.3908   15.0244 C.3       9 UNK        -0.2003 
     42 N         -49.5530  -27.0999   15.4557 N.am      9 UNK        -0.4272 
     43 C         -48.4678  -26.7033   16.1358 C.2       9 UNK         0.4988 
     44 O         -48.3442  -26.8155   17.3562 O.2       9 UNK        -0.5108 
     45 CA        -47.3345  -26.0563   15.3226 C.3       8 UNK         0.0248 
     46 CB        -46.5031  -27.1282   14.6000 C.3       8 UNK        -0.2001 
     47 N         -47.8154  -25.0606   14.3598 N.am      8 UNK        -0.4140 
     48 C         -48.4274  -23.9135   14.6921 C.2       8 UNK         0.5028 
     49 O         -48.6295  -23.5535   15.8518 O.2       8 UNK        -0.5428 
     50 CA        -48.9196  -23.0204   13.5417 C.3       7 UNK         0.0264 
     51 CB        -47.7712  -22.1649   12.9834 C.3       7 UNK        -0.1988 
     52 N         -49.5357  -23.7797   12.4542 N.am      7 UNK        -0.4454 
     53 C         -50.6729  -24.4832   12.5525 C.2       7 UNK         0.5027 
     54 O         -51.3592  -24.5389   13.5711 O.2       7 UNK        -0.5083 
     55 CA        -51.0887  -25.2916   11.3104 C.3       6 UNK         0.0844 
     56 C56       -51.7799  -24.3752   10.2650 C.3       14 UNK        -0.0967 
     57 S57       -51.9721  -25.0942    8.5958 S.3       14 UNK        -0.2604 
     58 C58       -53.3436  -26.2665    8.8210 C.3       14 UNK         0.0134 
     59 N         -49.9548  -26.0448   10.7737 N.am      6 UNK        -0.4116 
     60 C         -49.3042  -27.0256   11.4147 C.2       5 UNK         0.5034 
     61 O         -49.5934  -27.4305   12.5412 O.2       5 UNK        -0.5045 
     62 CA        -48.0887  -27.6220   10.6893 C.3       5 UNK         0.0224 
     63 CB        -48.5338  -28.7423    9.7383 C.3       5 UNK        -0.1978 
     64 N         -47.3189  -26.6111    9.9545 N.am      5 UNK        -0.4737 
     65 C         -46.6614  -25.6007   10.5413 C.2       4 UNK         0.5027 
     66 O         -46.6029  -25.4434   11.7605 O.2       4 UNK        -0.5211 
     67 CA        -46.0053  -24.5603    9.6195 C.3       4 UNK         0.0297 
     68 CB        -44.6999  -25.1003    9.0154 C.3       4 UNK        -0.1993 
     69 N         -46.8882  -24.0809    8.5516 N.am      4 UNK        -0.4486 
     70 C         -48.0675  -23.4733    8.7345 C.2       3 UNK         0.4961 
     71 O         -48.5655  -23.2896    9.8442 O.2       3 UNK        -0.5105 
     72 CA        -48.8444  -22.9834    7.4970 C.3       3 UNK         0.0299 
     73 CB        -48.6323  -21.4717    7.2853 C.3       3 UNK        -0.1972 
     74 N         -48.6191  -23.7378    6.2539 N.am      3 UNK        -0.4305 
     75 C         -47.5110  -23.8119    5.5035 C.2       2 UNK         0.5006 
     76 O         -46.4393  -23.2823    5.8001 O.2       2 UNK        -0.5106 
     77 CA        -47.6101  -24.7054    4.2629 C.3       2 UNK         0.0296 
     78 CB        -46.4139  -24.5532    3.3028 C.3       2 UNK        -0.2002 
     79 N         -47.6954  -26.0789    4.7368 N.am      2 UNK        -0.4032 
     80 C         -48.3422  -27.0942    4.1617 C.2       1 UNK         0.5000 
     81 O         -48.9519  -26.9951    3.0952 O.2       1 UNK        -0.5238 
     82 H82       -45.2844  -28.8240    8.2969 H         1 UNK         0.0889 
     83 H83       -44.3793  -28.0502    6.9930 H         1 UNK         0.0889 
     84 H84       -44.9819  -29.6993    6.7959 H         1 UNK         0.0889 
     85 H85       -46.5218  -29.5340    5.1811 H         1 UNK         0.3028 
     86 H86       -48.3702  -29.2070    4.0960 H         1 UNK         0.0864 
     87 H87       -49.5396  -27.9247    6.6207 H         1 UNK         0.0720 
     88 H88       -50.4553  -28.4332    5.2247 H         1 UNK         0.0720 
     89 H89       -51.6936  -31.5407    6.8928 H         1 UNK         0.0814 
     90 H90       -52.0034  -30.1643    5.8714 H         1 UNK         0.0814 
     91 H91       -52.4337  -27.9339    6.8783 H         1 UNK         0.1469 
     92 H92       -53.1171  -27.7550   11.1057 H         1 UNK         0.1381 
     93 H93       -51.4634  -31.2978    9.3574 H         1 UNK         0.1206 
     94 H94       -51.2372  -30.6499   11.9298 H         1 UNK         0.0813 
     95 H95       -52.3999  -29.4891   12.5195 H         1 UNK         0.0813 
     96 H96       -54.2584  -32.2199   14.0318 H         1 UNK         0.0638 
     97 H97       -53.5613  -30.6275   14.1273 H         1 UNK         0.0638 
     98 H98       -56.2091  -31.2897   12.7449 H         1 UNK         0.0568 
     99 H99       -57.3663  -29.6137   16.1733 H         1 UNK         0.3450 
    100 H100      -56.7660  -28.6851   14.8209 H         1 UNK         0.3450 
    101 H101      -54.7802  -28.7297   12.9725 H         1 UNK         0.2987 
    102 H102      -55.4128  -27.2910   11.0541 H         1 UNK         0.0766 
    103 H103      -57.2275  -25.8199   10.2451 H         1 UNK         0.0798 
    104 H104      -58.4324  -26.7863   11.0969 H         1 UNK         0.0798 
    105 H105      -57.5255  -27.4796    9.7594 H         1 UNK         0.0798 
    106 H106      -57.1179  -25.8622   12.9459 H         1 UNK         0.3198 
    107 H107      -55.8426  -24.3804   14.4176 H         1 UNK         0.0843 
    108 H108      -55.7969  -26.9069   16.1943 H         1 UNK         0.0831 
    109 H109      -57.2395  -26.2916   15.3934 H         1 UNK         0.0831 
    110 H110      -56.4730  -25.3474   16.6483 H         1 UNK         0.0831 
    111 H111      -53.3141  -25.5320   14.8145 H         1 UNK         0.3133 
    112 H112      -51.8422  -23.3040   16.1400 H         1 UNK         0.0566 
    113 H113      -51.0291  -23.7507   18.4727 H         1 UNK         0.0814 
    114 H114      -52.5196  -22.8237   18.4484 H         1 UNK         0.0814 
    115 H115      -52.5651  -24.5321   18.8508 H         1 UNK         0.0814 
    116 H116      -50.8928  -25.1682   15.5276 H         1 UNK         0.3091 
    117 H117      -50.4604  -28.3632   16.8492 H         1 UNK         0.0702 
    118 H118      -52.5163  -28.7693   15.4416 H         1 UNK         0.0785 
    119 H119      -51.8360  -27.7391   14.1880 H         1 UNK         0.0785 
    120 H120      -51.0306  -29.2431   14.6275 H         1 UNK         0.0785 
    121 H121      -49.5560  -27.0320   14.4405 H         1 UNK         0.2998 
    122 H122      -46.6779  -25.5396   16.0257 H         1 UNK         0.0697 
    123 H123      -47.0945  -27.6670   13.8597 H         1 UNK         0.0825 
    124 H124      -46.1150  -27.8635   15.3061 H         1 UNK         0.0825 
    125 H125      -45.6473  -26.6878   14.0880 H         1 UNK         0.0825 
    126 H126      -47.6197  -25.2430   13.3780 H         1 UNK         0.3029 
    127 H127      -49.6791  -22.3488   13.9478 H         1 UNK         0.0897 
    128 H128      -48.1286  -21.4720   12.2213 H         1 UNK         0.0792 
    129 H129      -46.9911  -22.7800   12.5332 H         1 UNK         0.0792 
    130 H130      -47.3068  -21.5708   13.7716 H         1 UNK         0.0792 
    131 H131      -49.0623  -23.7490   11.5519 H         1 UNK         0.3086 
    132 H132      -51.8230  -26.0225   11.6485 H         1 UNK         0.0583 
    133 H133      -52.7602  -24.0651   10.6319 H         1 UNK         0.1020 
    134 H134      -51.2160  -23.4498   10.1328 H         1 UNK         0.1020 
    135 H135      -53.9539  -25.9731    9.6759 H         1 UNK         0.0694 
    136 H136      -53.9967  -26.2154    7.9487 H         1 UNK         0.0694 
    137 H137      -49.6324  -25.7701    9.8582 H         1 UNK         0.2989 
    138 H138      -47.4335  -28.0573   11.4464 H         1 UNK         0.1055 
    139 H139      -49.0939  -29.5094   10.2747 H         1 UNK         0.0806 
    140 H140      -47.6821  -29.2343    9.2705 H         1 UNK         0.0806 
    141 H141      -49.1823  -28.3651    8.9472 H         1 UNK         0.0806 
    142 H142      -47.2939  -26.6897    8.9385 H         1 UNK         0.3061 
    143 H143      -45.7547  -23.6961   10.2382 H         1 UNK         0.0734 
    144 H144      -44.1698  -24.3255    8.4612 H         1 UNK         0.0832 
    145 H145      -44.0270  -25.4578    9.7960 H         1 UNK         0.0832 
    146 H146      -44.8816  -25.9317    8.3354 H         1 UNK         0.0832 
    147 H147      -46.5370  -24.1289    7.6015 H         1 UNK         0.3156 
    148 H148      -49.9000  -23.1257    7.7298 H         1 UNK         0.0589 
    149 H149      -47.5909  -21.2307    7.0699 H         1 UNK         0.0808 
    150 H150      -49.2417  -21.0961    6.4635 H         1 UNK         0.0808 
    151 H151      -48.9136  -20.9120    8.1785 H         1 UNK         0.0808 
    152 H152      -49.4184  -24.2720    5.9406 H         1 UNK         0.3098 
    153 H153      -48.5251  -24.4376    3.7300 H         1 UNK         0.0720 
    154 H154      -46.5401  -25.1704    2.4132 H         1 UNK         0.0791 
    155 H155      -45.4752  -24.8408    3.7781 H         1 UNK         0.0791 
    156 H156      -46.3106  -23.5198    2.9695 H         1 UNK         0.0791 
    157 H157      -47.2854  -26.2670    5.6512 H         1 UNK         0.3028 
@<TRIPOS>BOND
     1    1    2 1    
     2    1   82 1    
     3    1   83 1    
     4    1   84 1    
     5    2    3 2    
     6    2    4 am   BACKBONE|DICT|INTERRES
     7    4    5 1    
     8    4   85 1    
     9    5    6 1    
    10    5   80 1    
    11    5   86 1    
    12    6    7 1    
    13    6   87 1    
    14    6   88 1    
    15    7    8 1    
    16    8    9 1    
    17    8   89 1    
    18    8   90 1    
    19    9   10 ar   
    20    9   14 ar   
    21   10   11 ar   
    22   10   91 1    
    23   11   12 ar   
    24   11   58 1    
    25   12   13 ar   
    26   12   92 1    
    27   13   14 ar   
    28   13   15 1    
    29   14   93 1    
    30   15   16 1    
    31   15   94 1    
    32   15   95 1    
    33   16   17 1    
    34   17   18 1    
    35   17   96 1    
    36   17   97 1    
    37   18   19 1    
    38   18   22 1    
    39   18   98 1    
    40   19   20 am   BACKBONE|DICT|INTERRES
    41   19   21 2    
    42   20   99 1    
    43   20  100 1    
    44   22   23 am   BACKBONE|DICT|INTERRES
    45   22  101 1    
    46   23   24 2    
    47   23   25 1    
    48   25   26 1    
    49   25   27 1    
    50   25  102 1    
    51   26  103 1    
    52   26  104 1    
    53   26  105 1    
    54   27   28 am   BACKBONE|DICT|INTERRES
    55   27  106 1    
    56   28   29 2    
    57   28   30 1    
    58   30   31 1    
    59   30   32 1    
    60   30  107 1    
    61   31  108 1    
    62   31  109 1    
    63   31  110 1    
    64   32   33 am   BACKBONE|DICT|INTERRES
    65   32  111 1    
    66   33   34 2    
    67   33   35 1    
    68   35   36 1    
    69   35   37 1    
    70   35  112 1    
    71   36  113 1    
    72   36  114 1    
    73   36  115 1    
    74   37   38 am   BACKBONE|DICT|INTERRES
    75   37  116 1    
    76   38   39 2    
    77   38   40 1    
    78   40   41 1    
    79   40   42 1    
    80   40  117 1    
    81   41  118 1    
    82   41  119 1    
    83   41  120 1    
    84   42   43 am   BACKBONE|DICT|INTERRES
    85   42  121 1    
    86   43   44 2    
    87   43   45 1    
    88   45   46 1    
    89   45   47 1    
    90   45  122 1    
    91   46  123 1    
    92   46  124 1    
    93   46  125 1    
    94   47   48 am   BACKBONE|DICT|INTERRES
    95   47  126 1    
    96   48   49 2    
    97   48   50 1    
    98   50   51 1    
    99   50   52 1    
   100   50  127 1    
   101   51  128 1    
   102   51  129 1    
   103   51  130 1    
   104   52   53 am   BACKBONE|DICT|INTERRES
   105   52  131 1    
   106   53   54 2    
   107   53   55 1    
   108   55   56 1    
   109   55   59 1    
   110   55  132 1    
   111   56   57 1    
   112   56  133 1    
   113   56  134 1    
   114   57   58 1    
   115   58  135 1    
   116   58  136 1    
   117   59   60 am   BACKBONE|DICT|INTERRES
   118   59  137 1    
   119   60   61 2    
   120   60   62 1    
   121   62   63 1    
   122   62   64 1    
   123   62  138 1    
   124   63  139 1    
   125   63  140 1    
   126   63  141 1    
   127   64   65 am   BACKBONE|DICT|INTERRES
   128   64  142 1    
   129   65   66 2    
   130   65   67 1    
   131   67   68 1    
   132   67   69 1    
   133   67  143 1    
   134   68  144 1    
   135   68  145 1    
   136   68  146 1    
   137   69   70 am   BACKBONE|DICT|INTERRES
   138   69  147 1    
   139   70   71 2    
   140   70   72 1    
   141   72   73 1    
   142   72   74 1    
   143   72  148 1    
   144   73  149 1    
   145   73  150 1    
   146   73  151 1    
   147   74   75 am   BACKBONE|DICT|INTERRES
   148   74  152 1    
   149   75   76 2    
   150   75   77 1    
   151   77   78 1    
   152   77   79 1    
   153   77  153 1    
   154   78  154 1    
   155   78  155 1    
   156   78  156 1    
   157   79   80 am   BACKBONE|DICT|INTERRES
   158   79  157 1    
   159   80   81 2    
@<TRIPOS>SUBSTRUCTURE
     1 UNK         1 GROUP             0       ****    0 ROOT    
