@<TRIPOS>MOLECULE
3R207
157   159    1
SMALL
USER_CHARGES


@<TRIPOS>ATOM
      1 CA        -47.6276  -29.0247    1.5403 C.3       0 UNK        -0.1975 
      2 C         -47.7301  -28.2295    2.8339 C.2       0 UNK         0.4852 
      3 O         -46.8441  -27.4261    3.1289 O.2       0 UNK        -0.5216 
      4 N         -48.8081  -28.4408    3.5986 N.am      1 UNK        -0.4461 
      5 CA        -49.0403  -27.8300    4.9106 C.3       1 UNK         0.0864 
      6 C6        -50.5538  -27.7400    5.2286 C.3       14 UNK        -0.0898 
      7 S7        -51.4047  -29.3551    5.3483 S.3       14 UNK        -0.2598 
      8 C8        -53.1322  -28.8412    5.6259 C.3       14 UNK         0.0286 
      9 C9        -53.2584  -27.8567    6.7801 C.ar      14 UNK        -0.0844 
     10 C10       -53.5523  -26.5140    6.5274 C.ar      14 UNK        -0.0881 
     11 C11       -53.6187  -25.5913    7.5747 C.ar      14 UNK        -0.0643 
     12 C12       -53.4064  -26.0244    8.8879 C.ar      14 UNK        -0.0930 
     13 C13       -53.0883  -27.3611    9.1493 C.ar      14 UNK        -0.0827 
     14 C14       -53.0319  -28.2754    8.0937 C.ar      14 UNK        -0.1249 
     15 C15       -52.7258  -27.8117   10.5543 C.3       14 UNK         0.0141 
     16 S16       -54.1103  -28.6346   11.3978 S.3       14 UNK        -0.2313 
     17 C17       -53.1755  -29.7620   12.4853 C.3       14 UNK        -0.0915 
     18 CA        -54.0503  -30.4474   13.5664 C.3       13 UNK         0.0968 
     19 C         -53.2693  -31.5794   14.2995 C.2       13 UNK         0.5732 
     20 N         -53.1751  -31.5960   15.6248 N.am      13 UNK        -0.7310 
     21 O         -52.7449  -32.4800   13.6483 O.2       13 UNK        -0.5035 
     22 N         -54.6683  -29.4701   14.4761 N.am      13 UNK        -0.4233 
     23 C         -55.8465  -29.6611   15.0849 C.2       13 UNK         0.4989 
     24 O         -56.5743  -30.6321   14.8673 O.2       13 UNK        -0.4996 
     25 CA        -56.2861  -28.5975   16.1117 C.3       12 UNK         0.0216 
     26 CB        -57.3790  -29.1112   17.0735 C.3       12 UNK        -0.1964 
     27 N         -55.1764  -28.0080   16.8714 N.am      12 UNK        -0.4276 
     28 C         -54.2752  -28.6466   17.6368 C.2       12 UNK         0.5020 
     29 O         -54.2555  -29.8700   17.7799 O.2       12 UNK        -0.5489 
     30 CA        -53.1976  -27.7923   18.3354 C.3       11 UNK         0.0294 
     31 CB        -51.8142  -28.4651   18.2634 C.3       11 UNK        -0.2019 
     32 N         -53.1020  -26.4613   17.7349 N.am      11 UNK        -0.4493 
     33 C         -53.6002  -25.3291   18.2520 C.2       11 UNK         0.4932 
     34 O         -54.1133  -25.2537   19.3682 O.2       11 UNK        -0.5029 
     35 CA        -53.5539  -24.0710   17.3604 C.3       10 UNK         0.0280 
     36 CB        -52.3638  -23.1815   17.7518 C.3       10 UNK        -0.1976 
     37 N         -53.4858  -24.3778   15.9262 N.am      10 UNK        -0.4242 
     38 C         -54.4606  -24.9959   15.2371 C.2       10 UNK         0.5072 
     39 O         -55.5571  -25.2737   15.7221 O.2       10 UNK        -0.5224 
     40 CA        -54.1460  -25.4670   13.8042 C.3       9 UNK         0.0343 
     41 CB        -54.7120  -24.4783   12.7749 C.3       9 UNK        -0.2003 
     42 N         -52.7144  -25.6738   13.5650 N.am      9 UNK        -0.4272 
     43 C         -51.9591  -26.5742   14.2163 C.2       9 UNK         0.4988 
     44 O         -52.4373  -27.4095   14.9850 O.2       9 UNK        -0.5108 
     45 CA        -50.4254  -26.5112   14.0465 C.3       8 UNK         0.0248 
     46 CB        -49.8983  -27.7237   13.2632 C.3       8 UNK        -0.2001 
     47 N         -49.9333  -25.2814   13.4186 N.am      8 UNK        -0.4140 
     48 C         -50.0768  -24.0438   13.9148 C.2       8 UNK         0.5028 
     49 O         -50.5898  -23.8038   15.0083 O.2       8 UNK        -0.5428 
     50 CA        -49.6563  -22.8745   13.0046 C.3       7 UNK         0.0264 
     51 CB        -48.2600  -22.3690   13.3916 C.3       7 UNK        -0.1988 
     52 N         -49.7064  -23.1671   11.5604 N.am      7 UNK        -0.4454 
     53 C         -50.8308  -23.5163   10.9076 C.2       7 UNK         0.5027 
     54 O         -51.8874  -23.7496   11.4953 O.2       7 UNK        -0.5083 
     55 CA        -50.8213  -23.6420    9.3706 C.3       6 UNK         0.0844 
     56 C56       -51.9245  -22.7401    8.7543 C.3       14 UNK        -0.0967 
     57 S57       -52.3430  -23.1891    7.0370 S.3       14 UNK        -0.2604 
     58 C58       -53.8923  -24.1256    7.2708 C.3       14 UNK         0.0134 
     59 N         -49.5013  -23.3623    8.8036 N.am      6 UNK        -0.4116 
     60 C         -48.7835  -24.2115    8.0594 C.2       5 UNK         0.5034 
     61 O         -49.1589  -25.3367    7.7287 O.2       5 UNK        -0.5045 
     62 CA        -47.3934  -23.7337    7.6085 C.3       5 UNK         0.0224 
     63 CB        -47.3409  -22.2265    7.2717 C.3       5 UNK        -0.1978 
     64 N         -46.3394  -24.1032    8.5616 N.am      5 UNK        -0.4737 
     65 C         -46.2134  -23.7207    9.8415 C.2       4 UNK         0.5027 
     66 O         -47.0293  -23.0017   10.4213 O.2       4 UNK        -0.5211 
     67 CA        -44.9752  -24.2459   10.5930 C.3       4 UNK         0.0297 
     68 CB        -45.0772  -24.0777   12.1191 C.3       4 UNK        -0.1993 
     69 N         -44.7617  -25.6588   10.2855 N.am      4 UNK        -0.4486 
     70 C         -43.6857  -26.1810    9.6838 C.2       3 UNK         0.4961 
     71 O         -42.6797  -25.5357    9.3880 O.2       3 UNK        -0.5105 
     72 CA        -43.7532  -27.6801    9.3242 C.3       3 UNK         0.0299 
     73 CB        -43.0064  -28.5167   10.3756 C.3       3 UNK        -0.1972 
     74 N         -45.1203  -28.2001    9.1734 N.am      3 UNK        -0.4305 
     75 C         -46.0083  -27.7663    8.2675 C.2       2 UNK         0.5006 
     76 O         -45.7571  -26.8888    7.4365 O.2       2 UNK        -0.5106 
     77 CA        -47.4201  -28.3696    8.3593 C.3       2 UNK         0.0296 
     78 CB        -48.1266  -27.9237    9.6548 C.3       2 UNK        -0.2002 
     79 N         -48.2270  -27.9423    7.2182 N.am      2 UNK        -0.4032 
     80 C         -48.2380  -28.5443    6.0233 C.2       1 UNK         0.5000 
     81 O         -47.6622  -29.6139    5.7940 O.2       1 UNK        -0.5238 
     82 H82       -48.4868  -29.6795    1.3949 H         1 UNK         0.0889 
     83 H83       -46.7294  -29.6414    1.5501 H         1 UNK         0.0889 
     84 H84       -47.5686  -28.3489    0.6876 H         1 UNK         0.0889 
     85 H85       -49.4856  -29.1395    3.3277 H         1 UNK         0.3028 
     86 H86       -48.6622  -26.8055    4.8730 H         1 UNK         0.0864 
     87 H87       -51.0531  -27.1467    4.4610 H         1 UNK         0.0720 
     88 H88       -50.7009  -27.1924    6.1612 H         1 UNK         0.0720 
     89 H89       -53.5266  -28.4108    4.7040 H         1 UNK         0.0814 
     90 H90       -53.7376  -29.7243    5.8348 H         1 UNK         0.0814 
     91 H91       -53.7039  -26.1787    5.5104 H         1 UNK         0.1469 
     92 H92       -53.4435  -25.3116    9.6995 H         1 UNK         0.1381 
     93 H93       -52.7756  -29.3079    8.2894 H         1 UNK         0.1206 
     94 H94       -52.3947  -26.9614   11.1497 H         1 UNK         0.0813 
     95 H95       -51.8748  -28.4918   10.4932 H         1 UNK         0.0813 
     96 H96       -52.7071  -30.5086   11.8412 H         1 UNK         0.0638 
     97 H97       -52.3617  -29.2132   12.9555 H         1 UNK         0.0638 
     98 H98       -54.8501  -30.9626   13.0313 H         1 UNK         0.0568 
     99 H99       -53.6220  -30.8916   16.2025 H         1 UNK         0.3450 
    100 H100      -52.6682  -32.3466   16.0649 H         1 UNK         0.3450 
    101 H101      -54.0904  -28.6774   14.7305 H         1 UNK         0.2987 
    102 H102      -56.7198  -27.7845   15.5278 H         1 UNK         0.0766 
    103 H103      -57.6927  -28.3328   17.7691 H         1 UNK         0.0798 
    104 H104      -58.2672  -29.4297   16.5264 H         1 UNK         0.0798 
    105 H105      -57.0330  -29.9642   17.6583 H         1 UNK         0.0798 
    106 H106      -55.1052  -26.9992   16.7938 H         1 UNK         0.3198 
    107 H107      -53.4840  -27.7140   19.3862 H         1 UNK         0.0843 
    108 H108      -51.5038  -28.6417   17.2328 H         1 UNK         0.0831 
    109 H109      -51.8202  -29.4307   18.7708 H         1 UNK         0.0831 
    110 H110      -51.0503  -27.8543   18.7444 H         1 UNK         0.0831 
    111 H111      -52.7258  -26.4455   16.7933 H         1 UNK         0.3133 
    112 H112      -54.4727  -23.5079   17.5370 H         1 UNK         0.0566 
    113 H113      -51.4127  -23.6983   17.6168 H         1 UNK         0.0814 
    114 H114      -52.4267  -22.8841   18.7995 H         1 UNK         0.0814 
    115 H115      -52.3359  -22.2686   17.1567 H         1 UNK         0.0814 
    116 H116      -52.6000  -24.1871   15.4667 H         1 UNK         0.3091 
    117 H117      -54.6460  -26.4270   13.6599 H         1 UNK         0.0702 
    118 H118      -54.5667  -24.8411   11.7579 H         1 UNK         0.0785 
    119 H119      -54.2399  -23.4983   12.8542 H         1 UNK         0.0785 
    120 H120      -55.7844  -24.3375   12.9170 H         1 UNK         0.0785 
    121 H121      -52.2700  -25.0146   12.9318 H         1 UNK         0.2998 
    122 H122      -50.0015  -26.5520   15.0520 H         1 UNK         0.0697 
    123 H123      -50.2693  -27.7407   12.2390 H         1 UNK         0.0825 
    124 H124      -50.1985  -28.6574   13.7407 H         1 UNK         0.0825 
    125 H125      -48.8089  -27.7256   13.2232 H         1 UNK         0.0825 
    126 H126      -49.5099  -25.3728   12.5073 H         1 UNK         0.3029 
    127 H127      -50.3659  -22.0647   13.1880 H         1 UNK         0.0897 
    128 H128      -47.9569  -21.5189   12.7801 H         1 UNK         0.0792 
    129 H129      -48.2372  -22.0454   14.4331 H         1 UNK         0.0792 
    130 H130      -47.5107  -23.1498   13.2789 H         1 UNK         0.0792 
    131 H131      -48.8340  -23.0513   11.0486 H         1 UNK         0.3086 
    132 H132      -51.0805  -24.6831    9.1776 H         1 UNK         0.0583 
    133 H133      -52.8432  -22.7686    9.3431 H         1 UNK         0.1020 
    134 H134      -51.6096  -21.6952    8.7682 H         1 UNK         0.1020 
    135 H135      -54.5009  -23.6781    8.0577 H         1 UNK         0.0694 
    136 H136      -54.4838  -24.0446    6.3576 H         1 UNK         0.0694 
    137 H137      -49.0871  -22.4713    9.0375 H         1 UNK         0.2989 
    138 H138      -47.1741  -24.2782    6.6880 H         1 UNK         0.1055 
    139 H139      -46.3943  -21.9683    6.7969 H         1 UNK         0.0806 
    140 H140      -47.4467  -21.5924    8.1520 H         1 UNK         0.0806 
    141 H141      -48.1334  -21.9541    6.5730 H         1 UNK         0.0806 
    142 H142      -45.6675  -24.7741    8.2065 H         1 UNK         0.3061 
    143 H143      -44.1314  -23.6467   10.2450 H         1 UNK         0.0734 
    144 H144      -45.2322  -23.0327   12.3906 H         1 UNK         0.0832 
    145 H145      -45.9020  -24.6584   12.5323 H         1 UNK         0.0832 
    146 H146      -44.1615  -24.4040   12.6121 H         1 UNK         0.0832 
    147 H147      -45.5387  -26.2756   10.4728 H         1 UNK         0.3156 
    148 H148      -43.2465  -27.8058    8.3650 H         1 UNK         0.0589 
    149 H149      -43.4804  -28.4515   11.3559 H         1 UNK         0.0808 
    150 H150      -42.9632  -29.5681   10.0908 H         1 UNK         0.0808 
    151 H151      -41.9772  -28.1725   10.4888 H         1 UNK         0.0808 
    152 H152      -45.3996  -28.9259    9.8185 H         1 UNK         0.3098 
    153 H153      -47.3360  -29.4584    8.3603 H         1 UNK         0.0720 
    154 H154      -49.1565  -28.2808    9.6844 H         1 UNK         0.0791 
    155 H155      -47.6263  -28.3205   10.5386 H         1 UNK         0.0791 
    156 H156      -48.1505  -26.8378    9.7522 H         1 UNK         0.0791 
    157 H157      -48.6794  -27.0347    7.3197 H         1 UNK         0.3028 
@<TRIPOS>BOND
     1    1    2 1    
     2    1   82 1    
     3    1   83 1    
     4    1   84 1    
     5    2    3 2    
     6    2    4 am   BACKBONE|DICT|INTERRES
     7    4    5 1    
     8    4   85 1    
     9    5    6 1    
    10    5   80 1    
    11    5   86 1    
    12    6    7 1    
    13    6   87 1    
    14    6   88 1    
    15    7    8 1    
    16    8    9 1    
    17    8   89 1    
    18    8   90 1    
    19    9   10 ar   
    20    9   14 ar   
    21   10   11 ar   
    22   10   91 1    
    23   11   12 ar   
    24   11   58 1    
    25   12   13 ar   
    26   12   92 1    
    27   13   14 ar   
    28   13   15 1    
    29   14   93 1    
    30   15   16 1    
    31   15   94 1    
    32   15   95 1    
    33   16   17 1    
    34   17   18 1    
    35   17   96 1    
    36   17   97 1    
    37   18   19 1    
    38   18   22 1    
    39   18   98 1    
    40   19   20 am   BACKBONE|DICT|INTERRES
    41   19   21 2    
    42   20   99 1    
    43   20  100 1    
    44   22   23 am   BACKBONE|DICT|INTERRES
    45   22  101 1    
    46   23   24 2    
    47   23   25 1    
    48   25   26 1    
    49   25   27 1    
    50   25  102 1    
    51   26  103 1    
    52   26  104 1    
    53   26  105 1    
    54   27   28 am   BACKBONE|DICT|INTERRES
    55   27  106 1    
    56   28   29 2    
    57   28   30 1    
    58   30   31 1    
    59   30   32 1    
    60   30  107 1    
    61   31  108 1    
    62   31  109 1    
    63   31  110 1    
    64   32   33 am   BACKBONE|DICT|INTERRES
    65   32  111 1    
    66   33   34 2    
    67   33   35 1    
    68   35   36 1    
    69   35   37 1    
    70   35  112 1    
    71   36  113 1    
    72   36  114 1    
    73   36  115 1    
    74   37   38 am   BACKBONE|DICT|INTERRES
    75   37  116 1    
    76   38   39 2    
    77   38   40 1    
    78   40   41 1    
    79   40   42 1    
    80   40  117 1    
    81   41  118 1    
    82   41  119 1    
    83   41  120 1    
    84   42   43 am   BACKBONE|DICT|INTERRES
    85   42  121 1    
    86   43   44 2    
    87   43   45 1    
    88   45   46 1    
    89   45   47 1    
    90   45  122 1    
    91   46  123 1    
    92   46  124 1    
    93   46  125 1    
    94   47   48 am   BACKBONE|DICT|INTERRES
    95   47  126 1    
    96   48   49 2    
    97   48   50 1    
    98   50   51 1    
    99   50   52 1    
   100   50  127 1    
   101   51  128 1    
   102   51  129 1    
   103   51  130 1    
   104   52   53 am   BACKBONE|DICT|INTERRES
   105   52  131 1    
   106   53   54 2    
   107   53   55 1    
   108   55   56 1    
   109   55   59 1    
   110   55  132 1    
   111   56   57 1    
   112   56  133 1    
   113   56  134 1    
   114   57   58 1    
   115   58  135 1    
   116   58  136 1    
   117   59   60 am   BACKBONE|DICT|INTERRES
   118   59  137 1    
   119   60   61 2    
   120   60   62 1    
   121   62   63 1    
   122   62   64 1    
   123   62  138 1    
   124   63  139 1    
   125   63  140 1    
   126   63  141 1    
   127   64   65 am   BACKBONE|DICT|INTERRES
   128   64  142 1    
   129   65   66 2    
   130   65   67 1    
   131   67   68 1    
   132   67   69 1    
   133   67  143 1    
   134   68  144 1    
   135   68  145 1    
   136   68  146 1    
   137   69   70 am   BACKBONE|DICT|INTERRES
   138   69  147 1    
   139   70   71 2    
   140   70   72 1    
   141   72   73 1    
   142   72   74 1    
   143   72  148 1    
   144   73  149 1    
   145   73  150 1    
   146   73  151 1    
   147   74   75 am   BACKBONE|DICT|INTERRES
   148   74  152 1    
   149   75   76 2    
   150   75   77 1    
   151   77   78 1    
   152   77   79 1    
   153   77  153 1    
   154   78  154 1    
   155   78  155 1    
   156   78  156 1    
   157   79   80 am   BACKBONE|DICT|INTERRES
   158   79  157 1    
   159   80   81 2    
@<TRIPOS>SUBSTRUCTURE
     1 UNK         1 GROUP             0       ****    0 ROOT    
