@<TRIPOS>MOLECULE
3R207
157   159    1
SMALL
USER_CHARGES


@<TRIPOS>ATOM
      1 CA        -46.3448  -25.9477   11.2304 C.3       0 UNK        -0.1975 
      2 C         -46.8031  -26.3197    9.8288 C.2       0 UNK         0.4852 
      3 O         -46.9486  -25.4374    8.9813 O.2       0 UNK        -0.5216 
      4 N         -47.0128  -27.6206    9.5774 N.am      1 UNK        -0.4461 
      5 CA        -47.4992  -28.2001    8.3153 C.3       1 UNK         0.0864 
      6 C6        -48.9774  -27.8296    8.0150 C.3       14 UNK        -0.0898 
      7 S7        -50.0853  -28.5241    9.2904 S.3       14 UNK        -0.2598 
      8 C8        -51.2836  -29.4665    8.2942 C.3       14 UNK         0.0286 
      9 C9        -52.4865  -28.6009    7.9620 C.ar      14 UNK        -0.0844 
     10 C10       -52.4643  -27.7434    6.8579 C.ar      14 UNK        -0.0881 
     11 C11       -53.5335  -26.8748    6.6176 C.ar      14 UNK        -0.0643 
     12 C12       -54.6486  -26.9044    7.4627 C.ar      14 UNK        -0.0930 
     13 C13       -54.6892  -27.7731    8.5571 C.ar      14 UNK        -0.0827 
     14 C14       -53.6066  -28.6225    8.7973 C.ar      14 UNK        -0.1249 
     15 C15       -55.8926  -27.7860    9.4889 C.3       14 UNK         0.0141 
     16 S16       -55.4519  -27.2088   11.1599 S.3       14 UNK        -0.2313 
     17 C17       -57.0949  -27.0831   11.9476 C.3       14 UNK        -0.0915 
     18 CA        -57.4959  -28.3021   12.8218 C.3       13 UNK         0.0968 
     19 C         -57.8373  -29.5566   11.9661 C.2       13 UNK         0.5732 
     20 N         -58.9874  -29.5566   11.3054 N.am      13 UNK        -0.7310 
     21 O         -57.0660  -30.5097   11.8671 O.2       13 UNK        -0.5035 
     22 N         -56.5146  -28.5573   13.8855 N.am      13 UNK        -0.4233 
     23 C         -56.6993  -29.3872   14.9178 C.2       13 UNK         0.4989 
     24 O         -57.7694  -29.9461   15.1636 O.2       13 UNK        -0.4996 
     25 CA        -55.4988  -29.6417   15.8454 C.3       12 UNK         0.0216 
     26 CB        -54.4615  -30.5599   15.1703 C.3       12 UNK        -0.1964 
     27 N         -54.8804  -28.4284   16.3963 N.am      12 UNK        -0.4276 
     28 C         -54.2206  -27.4453   15.7713 C.2       12 UNK         0.5020 
     29 O         -53.9911  -27.4221   14.5612 O.2       12 UNK        -0.5489 
     30 CA        -53.6883  -26.3053   16.6535 C.3       11 UNK         0.0294 
     31 CB        -54.8281  -25.4338   17.2170 C.3       11 UNK        -0.2019 
     32 N         -52.7620  -26.7638   17.6982 N.am      11 UNK        -0.4493 
     33 C         -53.0141  -27.5148   18.7824 C.2       11 UNK         0.4932 
     34 O         -54.1434  -27.9006   19.0904 O.2       11 UNK        -0.5029 
     35 CA        -51.8053  -27.9366   19.6427 C.3       10 UNK         0.0280 
     36 CB        -52.0446  -29.2807   20.3562 C.3       10 UNK        -0.1976 
     37 N         -50.5923  -28.0433   18.8277 N.am      10 UNK        -0.4242 
     38 C         -49.5199  -27.2435   18.9051 C.2       10 UNK         0.5072 
     39 O         -49.3771  -26.3614   19.7524 O.2       10 UNK        -0.5224 
     40 CA        -48.4306  -27.4378   17.8287 C.3       9 UNK         0.0343 
     41 CB        -47.3188  -28.3618   18.3516 C.3       9 UNK        -0.2003 
     42 N         -48.9325  -27.9586   16.5480 N.am      9 UNK        -0.4272 
     43 C         -49.8510  -27.3516   15.7825 C.2       9 UNK         0.4988 
     44 O         -50.3659  -26.2693   16.0755 O.2       9 UNK        -0.5108 
     45 CA        -50.3180  -28.1205   14.5336 C.3       8 UNK         0.0248 
     46 CB        -51.0275  -29.4263   14.9317 C.3       8 UNK        -0.2001 
     47 N         -51.2434  -27.3069   13.7434 N.am      8 UNK        -0.4140 
     48 C         -50.8623  -26.3967   12.8430 C.2       8 UNK         0.5028 
     49 O         -49.6975  -26.2390   12.4645 O.2       8 UNK        -0.5428 
     50 CA        -51.9589  -25.4848   12.2874 C.3       7 UNK         0.0264 
     51 CB        -52.0596  -24.1882   13.1137 C.3       7 UNK        -0.1988 
     52 N         -51.6106  -25.1894   10.9052 N.am      7 UNK        -0.4454 
     53 C         -52.4094  -24.6551    9.9759 C.2       7 UNK         0.5027 
     54 O         -53.5492  -24.2425   10.1981 O.2       7 UNK        -0.5083 
     55 CA        -51.8032  -24.5759    8.5602 C.3       6 UNK         0.0844 
     56 C56       -52.7581  -23.9779    7.4889 C.3       14 UNK        -0.0967 
     57 S57       -52.2649  -24.5219    5.8156 S.3       14 UNK        -0.2604 
     58 C58       -53.4620  -25.8625    5.4806 C.3       14 UNK         0.0134 
     59 N         -50.4805  -23.9438    8.5638 N.am      6 UNK        -0.4116 
     60 C         -50.1809  -22.6958    8.9550 C.2       5 UNK         0.5034 
     61 O         -50.9979  -21.8891    9.3993 O.2       5 UNK        -0.5045 
     62 CA        -48.7096  -22.2705    8.8177 C.3       5 UNK         0.0224 
     63 CB        -47.9801  -22.4166   10.1628 C.3       5 UNK        -0.1978 
     64 N         -48.0033  -23.0461    7.7940 N.am      5 UNK        -0.4737 
     65 C         -48.1260  -22.8382    6.4745 C.2       4 UNK         0.5027 
     66 O         -48.7970  -21.9244    5.9922 O.2       4 UNK        -0.5211 
     67 CA        -47.3900  -23.8247    5.5471 C.3       4 UNK         0.0297 
     68 CB        -47.1814  -23.2781    4.1187 C.3       4 UNK        -0.1993 
     69 N         -46.1320  -24.3126    6.1210 N.am      4 UNK        -0.4486 
     70 C         -45.0399  -23.5939    6.4310 C.2       3 UNK         0.4961 
     71 O         -44.9178  -22.3917    6.1932 O.2       3 UNK        -0.5105 
     72 CA        -43.8884  -24.3223    7.1520 C.3       3 UNK         0.0299 
     73 CB        -43.7451  -23.8033    8.5932 C.3       3 UNK        -0.1972 
     74 N         -44.0612  -25.7761    7.1869 N.am      3 UNK        -0.4305 
     75 C         -43.7958  -26.6042    6.1668 C.2       2 UNK         0.5006 
     76 O         -43.2846  -26.2430    5.1064 O.2       2 UNK        -0.5106 
     77 CA        -44.1837  -28.0838    6.3486 C.3       2 UNK         0.0296 
     78 CB        -42.9592  -28.9109    6.7732 C.3       2 UNK        -0.2002 
     79 N         -45.2720  -28.3019    7.3096 N.am      2 UNK        -0.4032 
     80 C         -46.5376  -27.8844    7.1500 C.2       1 UNK         0.5000 
     81 O         -46.9238  -27.2394    6.1731 O.2       1 UNK        -0.5238 
     82 H82       -45.4573  -25.3179   11.1836 H         1 UNK         0.0889 
     83 H83       -46.1061  -26.8274   11.8275 H         1 UNK         0.0889 
     84 H84       -47.1301  -25.3947   11.7444 H         1 UNK         0.0889 
     85 H85       -46.8799  -28.2854   10.3266 H         1 UNK         0.3028 
     86 H86       -47.4565  -29.2840    8.4370 H         1 UNK         0.0864 
     87 H87       -49.1143  -26.7484    7.9764 H         1 UNK         0.0720 
     88 H88       -49.2725  -28.2055    7.0345 H         1 UNK         0.0720 
     89 H89       -51.6012  -30.3394    8.8666 H         1 UNK         0.0814 
     90 H90       -50.8215  -29.8560    7.3862 H         1 UNK         0.0814 
     91 H91       -51.5935  -27.7087    6.2179 H         1 UNK         0.1469 
     92 H92       -55.4750  -26.2303    7.2832 H         1 UNK         0.1381 
     93 H93       -53.6254  -29.2783    9.6573 H         1 UNK         0.1206 
     94 H94       -56.6913  -27.1591    9.0898 H         1 UNK         0.0813 
     95 H95       -56.2901  -28.7999    9.5450 H         1 UNK         0.0813 
     96 H96       -57.8526  -26.8830   11.1883 H         1 UNK         0.0638 
     97 H97       -57.0776  -26.1904   12.5744 H         1 UNK         0.0638 
     98 H98       -58.4211  -28.0300   13.3335 H         1 UNK         0.0568 
     99 H99       -59.2238  -30.3549   10.7373 H         1 UNK         0.3450 
    100 H100      -59.6289  -28.7818   11.3703 H         1 UNK         0.3450 
    101 H101      -55.5970  -28.1360   13.7711 H         1 UNK         0.2987 
    102 H102      -55.8875  -30.1820   16.7103 H         1 UNK         0.0766 
    103 H103      -54.9291  -31.4813   14.8205 H         1 UNK         0.0798 
    104 H104      -53.6726  -30.8443   15.8661 H         1 UNK         0.0798 
    105 H105      -53.9976  -30.0880   14.3039 H         1 UNK         0.0798 
    106 H106      -54.9508  -28.3285   17.4070 H         1 UNK         0.3198 
    107 H107      -53.0920  -25.6647   16.0029 H         1 UNK         0.0843 
    108 H108      -55.4916  -25.9902   17.8791 H         1 UNK         0.0831 
    109 H109      -55.4424  -25.0330   16.4095 H         1 UNK         0.0831 
    110 H110      -54.4352  -24.5844   17.7756 H         1 UNK         0.0831 
    111 H111      -51.7926  -26.5278   17.5078 H         1 UNK         0.3133 
    112 H112      -51.6839  -27.1666   20.4068 H         1 UNK         0.0566 
    113 H113      -51.1824  -29.5679   20.9583 H         1 UNK         0.0814 
    114 H114      -52.2415  -30.0853   19.6467 H         1 UNK         0.0814 
    115 H115      -52.9003  -29.2221   21.0303 H         1 UNK         0.0814 
    116 H116      -50.6066  -28.7402   18.0969 H         1 UNK         0.3091 
    117 H117      -47.9940  -26.4563   17.6323 H         1 UNK         0.0702 
    118 H118      -46.4926  -28.4299   17.6436 H         1 UNK         0.0785 
    119 H119      -47.6866  -29.3714   18.5392 H         1 UNK         0.0785 
    120 H120      -46.9077  -27.9855   19.2896 H         1 UNK         0.0785 
    121 H121      -48.5547  -28.8448   16.2437 H         1 UNK         0.2998 
    122 H122      -49.4422  -28.3659   13.9290 H         1 UNK         0.0697 
    123 H123      -51.8401  -29.2440   15.6345 H         1 UNK         0.0825 
    124 H124      -50.3389  -30.1273   15.4043 H         1 UNK         0.0825 
    125 H125      -51.4451  -29.9309   14.0601 H         1 UNK         0.0825 
    126 H126      -52.2261  -27.3482   14.0088 H         1 UNK         0.3029 
    127 H127      -52.9136  -26.0145   12.3088 H         1 UNK         0.0897 
    128 H128      -51.1368  -23.6091   13.0627 H         1 UNK         0.0792 
    129 H129      -52.2482  -24.4084   14.1644 H         1 UNK         0.0792 
    130 H130      -52.8743  -23.5531   12.7662 H         1 UNK         0.0792 
    131 H131      -50.6809  -25.5028   10.6514 H         1 UNK         0.3086 
    132 H132      -51.6162  -25.6167    8.2992 H         1 UNK         0.0583 
    133 H133      -53.7948  -24.2701    7.6594 H         1 UNK         0.1020 
    134 H134      -52.7560  -22.8878    7.5287 H         1 UNK         0.1020 
    135 H135      -54.4427  -25.4215    5.2956 H         1 UNK         0.0694 
    136 H136      -53.1768  -26.3713    4.5587 H         1 UNK         0.0694 
    137 H137      -49.7207  -24.5094    8.2161 H         1 UNK         0.2989 
    138 H138      -48.6936  -21.2164    8.5312 H         1 UNK         0.1055 
    139 H139      -48.0238  -23.4396   10.5360 H         1 UNK         0.0806 
    140 H140      -48.4325  -21.7762   10.9212 H         1 UNK         0.0806 
    141 H141      -46.9308  -22.1326   10.0805 H         1 UNK         0.0806 
    142 H142      -47.4535  -23.8400    8.1198 H         1 UNK         0.3061 
    143 H143      -48.0391  -24.6983    5.4693 H         1 UNK         0.0734 
    144 H144      -46.6026  -22.3541    4.1174 H         1 UNK         0.0832 
    145 H145      -46.6632  -24.0012    3.4891 H         1 UNK         0.0832 
    146 H146      -48.1378  -23.0610    3.6415 H         1 UNK         0.0832 
    147 H147      -46.1409  -25.2965    6.3681 H         1 UNK         0.3156 
    148 H148      -42.9660  -24.0913    6.6149 H         1 UNK         0.0589 
    149 H149      -42.9259  -24.2967    9.1163 H         1 UNK         0.0808 
    150 H150      -43.5345  -22.7330    8.6019 H         1 UNK         0.0808 
    151 H151      -44.6569  -23.9560    9.1710 H         1 UNK         0.0808 
    152 H152      -44.4938  -26.1579    8.0152 H         1 UNK         0.3098 
    153 H153      -44.5224  -28.4497    5.3769 H         1 UNK         0.0720 
    154 H154      -42.1416  -28.7919    6.0606 H         1 UNK         0.0791 
    155 H155      -43.1937  -29.9747    6.8176 H         1 UNK         0.0791 
    156 H156      -42.5848  -28.6069    7.7517 H         1 UNK         0.0791 
    157 H157      -45.0360  -28.8070    8.1521 H         1 UNK         0.3028 
@<TRIPOS>BOND
     1    1    2 1    
     2    1   82 1    
     3    1   83 1    
     4    1   84 1    
     5    2    3 2    
     6    2    4 am   BACKBONE|DICT|INTERRES
     7    4    5 1    
     8    4   85 1    
     9    5    6 1    
    10    5   80 1    
    11    5   86 1    
    12    6    7 1    
    13    6   87 1    
    14    6   88 1    
    15    7    8 1    
    16    8    9 1    
    17    8   89 1    
    18    8   90 1    
    19    9   10 ar   
    20    9   14 ar   
    21   10   11 ar   
    22   10   91 1    
    23   11   12 ar   
    24   11   58 1    
    25   12   13 ar   
    26   12   92 1    
    27   13   14 ar   
    28   13   15 1    
    29   14   93 1    
    30   15   16 1    
    31   15   94 1    
    32   15   95 1    
    33   16   17 1    
    34   17   18 1    
    35   17   96 1    
    36   17   97 1    
    37   18   19 1    
    38   18   22 1    
    39   18   98 1    
    40   19   20 am   BACKBONE|DICT|INTERRES
    41   19   21 2    
    42   20   99 1    
    43   20  100 1    
    44   22   23 am   BACKBONE|DICT|INTERRES
    45   22  101 1    
    46   23   24 2    
    47   23   25 1    
    48   25   26 1    
    49   25   27 1    
    50   25  102 1    
    51   26  103 1    
    52   26  104 1    
    53   26  105 1    
    54   27   28 am   BACKBONE|DICT|INTERRES
    55   27  106 1    
    56   28   29 2    
    57   28   30 1    
    58   30   31 1    
    59   30   32 1    
    60   30  107 1    
    61   31  108 1    
    62   31  109 1    
    63   31  110 1    
    64   32   33 am   BACKBONE|DICT|INTERRES
    65   32  111 1    
    66   33   34 2    
    67   33   35 1    
    68   35   36 1    
    69   35   37 1    
    70   35  112 1    
    71   36  113 1    
    72   36  114 1    
    73   36  115 1    
    74   37   38 am   BACKBONE|DICT|INTERRES
    75   37  116 1    
    76   38   39 2    
    77   38   40 1    
    78   40   41 1    
    79   40   42 1    
    80   40  117 1    
    81   41  118 1    
    82   41  119 1    
    83   41  120 1    
    84   42   43 am   BACKBONE|DICT|INTERRES
    85   42  121 1    
    86   43   44 2    
    87   43   45 1    
    88   45   46 1    
    89   45   47 1    
    90   45  122 1    
    91   46  123 1    
    92   46  124 1    
    93   46  125 1    
    94   47   48 am   BACKBONE|DICT|INTERRES
    95   47  126 1    
    96   48   49 2    
    97   48   50 1    
    98   50   51 1    
    99   50   52 1    
   100   50  127 1    
   101   51  128 1    
   102   51  129 1    
   103   51  130 1    
   104   52   53 am   BACKBONE|DICT|INTERRES
   105   52  131 1    
   106   53   54 2    
   107   53   55 1    
   108   55   56 1    
   109   55   59 1    
   110   55  132 1    
   111   56   57 1    
   112   56  133 1    
   113   56  134 1    
   114   57   58 1    
   115   58  135 1    
   116   58  136 1    
   117   59   60 am   BACKBONE|DICT|INTERRES
   118   59  137 1    
   119   60   61 2    
   120   60   62 1    
   121   62   63 1    
   122   62   64 1    
   123   62  138 1    
   124   63  139 1    
   125   63  140 1    
   126   63  141 1    
   127   64   65 am   BACKBONE|DICT|INTERRES
   128   64  142 1    
   129   65   66 2    
   130   65   67 1    
   131   67   68 1    
   132   67   69 1    
   133   67  143 1    
   134   68  144 1    
   135   68  145 1    
   136   68  146 1    
   137   69   70 am   BACKBONE|DICT|INTERRES
   138   69  147 1    
   139   70   71 2    
   140   70   72 1    
   141   72   73 1    
   142   72   74 1    
   143   72  148 1    
   144   73  149 1    
   145   73  150 1    
   146   73  151 1    
   147   74   75 am   BACKBONE|DICT|INTERRES
   148   74  152 1    
   149   75   76 2    
   150   75   77 1    
   151   77   78 1    
   152   77   79 1    
   153   77  153 1    
   154   78  154 1    
   155   78  155 1    
   156   78  156 1    
   157   79   80 am   BACKBONE|DICT|INTERRES
   158   79  157 1    
   159   80   81 2    
@<TRIPOS>SUBSTRUCTURE
     1 UNK         1 GROUP             0       ****    0 ROOT    
