@<TRIPOS>MOLECULE
3R207
157   159    1
SMALL
USER_CHARGES


@<TRIPOS>ATOM
      1 CA        -49.4304  -33.2465    4.9361 C.3       0 UNK        -0.1975 
      2 C         -49.9246  -32.1022    5.8096 C.2       0 UNK         0.4852 
      3 O         -51.1115  -32.0574    6.1357 O.2       0 UNK        -0.5216 
      4 N         -49.0187  -31.1917    6.1889 N.am      1 UNK        -0.4461 
      5 CA        -49.2961  -29.9959    6.9904 C.3       1 UNK         0.0864 
      6 C6        -48.1917  -29.7654    8.0616 C.3       14 UNK        -0.0898 
      7 S7        -48.3646  -30.9378    9.4494 S.3       14 UNK        -0.2598 
      8 C8        -49.1785  -29.9087   10.7197 C.3       14 UNK         0.0286 
      9 C9        -50.6120  -29.5502   10.3468 C.ar      14 UNK        -0.0844 
     10 C10       -50.8711  -28.4219    9.5653 C.ar      14 UNK        -0.0881 
     11 C11       -52.1792  -28.0714    9.2186 C.ar      14 UNK        -0.0643 
     12 C12       -53.2340  -28.8527    9.6896 C.ar      14 UNK        -0.0930 
     13 C13       -53.0009  -29.9840   10.4792 C.ar      14 UNK        -0.0827 
     14 C14       -51.6820  -30.3316   10.7941 C.ar      14 UNK        -0.1249 
     15 C15       -54.1583  -30.8189   11.0251 C.3       14 UNK         0.0141 
     16 S16       -55.5176  -31.0459    9.8290 S.3       14 UNK        -0.2313 
     17 C17       -56.9186  -30.2241   10.6611 C.3       14 UNK        -0.0915 
     18 CA        -56.9877  -28.6959   10.3819 C.3       13 UNK         0.0968 
     19 C         -58.4578  -28.1913   10.4006 C.2       13 UNK         0.5732 
     20 N         -59.1490  -28.2596    9.2707 N.am      13 UNK        -0.7310 
     21 O         -58.9886  -27.7784   11.4309 O.2       13 UNK        -0.5035 
     22 N         -56.1535  -27.9452   11.3314 N.am      13 UNK        -0.4233 
     23 C         -55.7971  -26.6636   11.2031 C.2       13 UNK         0.4989 
     24 O         -55.9476  -26.0210   10.1636 O.2       13 UNK        -0.4996 
     25 CA        -55.1895  -25.9520   12.4314 C.3       12 UNK         0.0216 
     26 CB        -56.3076  -25.3609   13.3107 C.3       12 UNK        -0.1964 
     27 N         -54.2418  -26.7211   13.2548 N.am      12 UNK        -0.4276 
     28 C         -54.4315  -27.8628   13.9350 C.2       12 UNK         0.5020 
     29 O         -55.4764  -28.5146   13.9216 O.2       12 UNK        -0.5489 
     30 CA        -53.2585  -28.3631   14.7868 C.3       11 UNK         0.0294 
     31 CB        -52.2568  -29.1574   13.9370 C.3       11 UNK        -0.2019 
     32 N         -52.5517  -27.2661   15.4406 N.am      11 UNK        -0.4493 
     33 C         -52.8246  -26.8031   16.6666 C.2       11 UNK         0.4932 
     34 O         -53.7772  -27.1855   17.3484 O.2       11 UNK        -0.5029 
     35 CA        -51.8351  -25.7614   17.2291 C.3       10 UNK         0.0280 
     36 CB        -51.9115  -25.6217   18.7638 C.3       10 UNK        -0.1976 
     37 N         -50.4519  -26.0062   16.7946 N.am      10 UNK        -0.4242 
     38 C         -49.7175  -27.1177   16.9810 C.2       10 UNK         0.5072 
     39 O         -50.0804  -28.0722   17.6699 O.2       10 UNK        -0.5224 
     40 CA        -48.3693  -27.2176   16.2402 C.3       9 UNK         0.0343 
     41 CB        -48.4313  -28.3257   15.1743 C.3       9 UNK        -0.2003 
     42 N         -47.9711  -25.9620   15.5979 N.am      9 UNK        -0.4272 
     43 C         -47.3745  -24.9491   16.2428 C.2       9 UNK         0.4988 
     44 O         -47.0196  -25.0023   17.4208 O.2       9 UNK        -0.5108 
     45 CA        -47.1711  -23.6416   15.4593 C.3       8 UNK         0.0248 
     46 CB        -45.8564  -23.6829   14.6659 C.3       8 UNK        -0.2001 
     47 N         -48.2860  -23.3058   14.5657 N.am      8 UNK        -0.4140 
     48 C         -49.5396  -23.0540   14.9739 C.2       8 UNK         0.5028 
     49 O         -49.9081  -23.1457   16.1438 O.2       8 UNK        -0.5428 
     50 CA        -50.5637  -22.6511   13.9060 C.3       7 UNK         0.0264 
     51 CB        -50.3897  -21.1740   13.5168 C.3       7 UNK        -0.1988 
     52 N         -50.4529  -23.4837   12.7131 N.am      7 UNK        -0.4454 
     53 C         -51.0401  -24.6781   12.5552 C.2       7 UNK         0.5027 
     54 O         -51.7644  -25.2181   13.3951 O.2       7 UNK        -0.5083 
     55 CA        -50.7497  -25.3994   11.2259 C.3       6 UNK         0.0844 
     56 C56       -51.6922  -24.8635   10.1154 C.3       14 UNK        -0.0967 
     57 S57       -51.3128  -25.5013    8.4474 S.3       14 UNK        -0.2604 
     58 C58       -52.4849  -26.8875    8.3044 C.3       14 UNK         0.0134 
     59 N         -49.3350  -25.3154   10.8516 N.am      6 UNK        -0.4116 
     60 C         -48.3031  -25.7535   11.5873 C.2       5 UNK         0.5034 
     61 O         -48.4157  -26.3053   12.6809 O.2       5 UNK        -0.5045 
     62 CA        -46.8967  -25.4792   11.0332 C.3       5 UNK         0.0224 
     63 CB        -46.4247  -26.6574   10.1686 C.3       5 UNK        -0.1978 
     64 N         -46.7949  -24.2280   10.2720 N.am      5 UNK        -0.4737 
     65 C         -47.0855  -23.0080   10.7516 C.2       4 UNK         0.5027 
     66 O         -47.5044  -22.8064   11.8919 O.2       4 UNK        -0.5211 
     67 CA        -46.9049  -21.8075    9.8083 C.3       4 UNK         0.0297 
     68 CB        -45.5902  -21.0783   10.1259 C.3       4 UNK        -0.1993 
     69 N         -46.9376  -22.1495    8.3832 N.am      4 UNK        -0.4486 
     70 C         -48.0082  -22.6170    7.7264 C.2       3 UNK         0.4961 
     71 O         -49.0924  -22.8366    8.2683 O.2       3 UNK        -0.5105 
     72 CA        -47.8572  -22.8505    6.2086 C.3       3 UNK         0.0299 
     73 CB        -46.3995  -22.7740    5.6952 C.3       3 UNK        -0.1972 
     74 N         -48.4895  -24.0960    5.7599 N.am      3 UNK        -0.4305 
     75 C         -48.1891  -25.3417    6.1525 C.2       2 UNK         0.5006 
     76 O         -47.3416  -25.6228    7.0047 O.2       2 UNK        -0.5106 
     77 CA        -48.9328  -26.4676    5.4236 C.3       2 UNK         0.0296 
     78 CB        -48.3799  -26.6482    3.9945 C.3       2 UNK        -0.2002 
     79 N         -48.7862  -27.7075    6.1823 N.am      2 UNK        -0.4032 
     80 C         -49.5500  -28.7992    6.0445 C.2       1 UNK         0.5000 
     81 O         -50.4519  -28.8811    5.2070 O.2       1 UNK        -0.5238 
     82 H82       -49.6185  -34.2011    5.4270 H         1 UNK         0.0889 
     83 H83       -48.3619  -33.1750    4.7337 H         1 UNK         0.0889 
     84 H84       -49.9569  -33.2441    3.9821 H         1 UNK         0.0889 
     85 H85       -48.0664  -31.2854    5.8659 H         1 UNK         0.3028 
     86 H86       -50.2422  -30.1373    7.5164 H         1 UNK         0.0864 
     87 H87       -47.1982  -29.8843    7.6257 H         1 UNK         0.0720 
     88 H88       -48.2107  -28.7595    8.4766 H         1 UNK         0.0720 
     89 H89       -48.5956  -29.0027   10.8925 H         1 UNK         0.0814 
     90 H90       -49.1700  -30.4517   11.6661 H         1 UNK         0.0814 
     91 H91       -50.0495  -27.8128    9.2219 H         1 UNK         0.1469 
     92 H92       -54.2440  -28.5798    9.4254 H         1 UNK         0.1381 
     93 H93       -51.4864  -31.2025   11.4046 H         1 UNK         0.1206 
     94 H94       -53.8028  -31.8074   11.3195 H         1 UNK         0.0813 
     95 H95       -54.5327  -30.3463   11.9326 H         1 UNK         0.0813 
     96 H96       -57.8114  -30.7282   10.2853 H         1 UNK         0.0638 
     97 H97       -56.8986  -30.4336   11.7322 H         1 UNK         0.0638 
     98 H98       -56.6034  -28.5045    9.3783 H         1 UNK         0.0568 
     99 H99       -60.1087  -27.9516    9.2650 H         1 UNK         0.3450 
    100 H100      -58.7309  -28.6114    8.4233 H         1 UNK         0.3450 
    101 H101      -56.0259  -28.3603   12.2529 H         1 UNK         0.2987 
    102 H102      -54.6106  -25.1138   12.0408 H         1 UNK         0.0766 
    103 H103      -55.8980  -24.7563   14.1199 H         1 UNK         0.0798 
    104 H104      -56.9283  -26.1401   13.7549 H         1 UNK         0.0798 
    105 H105      -56.9661  -24.7170   12.7259 H         1 UNK         0.0798 
    106 H106      -53.3300  -26.2800   13.3538 H         1 UNK         0.3198 
    107 H107      -53.6600  -29.0371   15.5471 H         1 UNK         0.0843 
    108 H108      -52.7308  -30.0393   13.5078 H         1 UNK         0.0831 
    109 H109      -51.4184  -29.5095   14.5382 H         1 UNK         0.0831 
    110 H110      -51.8545  -28.5618   13.1161 H         1 UNK         0.0831 
    111 H111      -51.8002  -26.8280   14.9233 H         1 UNK         0.3133 
    112 H112      -52.1250  -24.8037   16.7945 H         1 UNK         0.0566 
    113 H113      -51.2112  -24.8696   19.1271 H         1 UNK         0.0814 
    114 H114      -52.9089  -25.3138   19.0796 H         1 UNK         0.0814 
    115 H115      -51.6865  -26.5621   19.2680 H         1 UNK         0.0814 
    116 H116      -50.0337  -25.2429   16.2755 H         1 UNK         0.3091 
    117 H117      -47.6114  -27.4985   16.9745 H         1 UNK         0.0702 
    118 H118      -47.4871  -28.4148   14.6368 H         1 UNK         0.0785 
    119 H119      -49.2166  -28.1370   14.4413 H         1 UNK         0.0785 
    120 H120      -48.6386  -29.2953   15.6287 H         1 UNK         0.0785 
    121 H121      -48.1947  -25.8677   14.6108 H         1 UNK         0.2998 
    122 H122      -47.0945  -22.8338   16.1902 H         1 UNK         0.0697 
    123 H123      -45.8546  -24.4888   13.9339 H         1 UNK         0.0825 
    124 H124      -45.0063  -23.8457   15.3297 H         1 UNK         0.0825 
    125 H125      -45.6799  -22.7464   14.1363 H         1 UNK         0.0825 
    126 H126      -48.0560  -23.1796   13.5808 H         1 UNK         0.3029 
    127 H127      -51.5614  -22.7736   14.3345 H         1 UNK         0.0897 
    128 H128      -51.1542  -20.8598   12.8061 H         1 UNK         0.0792 
    129 H129      -50.4766  -20.5280   14.3916 H         1 UNK         0.0792 
    130 H130      -49.4147  -20.9835   13.0658 H         1 UNK         0.0792 
    131 H131      -49.8205  -23.1581   11.9939 H         1 UNK         0.3086 
    132 H132      -50.9747  -26.4532   11.3922 H         1 UNK         0.0583 
    133 H133      -52.7325  -25.0889   10.3569 H         1 UNK         0.1020 
    134 H134      -51.6295  -23.7750   10.0524 H         1 UNK         0.1020 
    135 H135      -53.4935  -26.5124    8.4866 H         1 UNK         0.0694 
    136 H136      -52.4690  -27.2431    7.2733 H         1 UNK         0.0694 
    137 H137      -49.1387  -24.8605    9.9695 H         1 UNK         0.2989 
    138 H138      -46.2210  -25.3975   11.8849 H         1 UNK         0.1055 
    139 H139      -46.4227  -27.5859   10.7416 H         1 UNK         0.0806 
    140 H140      -45.4101  -26.5027    9.8015 H         1 UNK         0.0806 
    141 H141      -47.0740  -26.8082    9.3075 H         1 UNK         0.0806 
    142 H142      -46.4943  -24.3035    9.3096 H         1 UNK         0.3061 
    143 H143      -47.7313  -21.1206   10.0036 H         1 UNK         0.0734 
    144 H144      -45.5504  -20.7866   11.1767 H         1 UNK         0.0832 
    145 H145      -44.7209  -21.7076    9.9307 H         1 UNK         0.0832 
    146 H146      -45.4871  -20.1672    9.5363 H         1 UNK         0.0832 
    147 H147      -46.0865  -22.0000    7.8606 H         1 UNK         0.3156 
    148 H148      -48.4135  -22.0436    5.7296 H         1 UNK         0.0589 
    149 H149      -45.7555  -23.5118    6.1759 H         1 UNK         0.0808 
    150 H150      -46.3551  -22.9536    4.6208 H         1 UNK         0.0808 
    151 H151      -45.9660  -21.7874    5.8637 H         1 UNK         0.0808 
    152 H152      -49.2311  -23.9807    5.0833 H         1 UNK         0.3098 
    153 H153      -49.9921  -26.2044    5.3813 H         1 UNK         0.0720 
    154 H154      -48.4659  -25.7277    3.4160 H         1 UNK         0.0791 
    155 H155      -48.9234  -27.4185    3.4475 H         1 UNK         0.0791 
    156 H156      -47.3258  -26.9286    4.0064 H         1 UNK         0.0791 
    157 H157      -48.0631  -27.6651    6.8895 H         1 UNK         0.3028 
@<TRIPOS>BOND
     1    1    2 1    
     2    1   82 1    
     3    1   83 1    
     4    1   84 1    
     5    2    3 2    
     6    2    4 am   BACKBONE|DICT|INTERRES
     7    4    5 1    
     8    4   85 1    
     9    5    6 1    
    10    5   80 1    
    11    5   86 1    
    12    6    7 1    
    13    6   87 1    
    14    6   88 1    
    15    7    8 1    
    16    8    9 1    
    17    8   89 1    
    18    8   90 1    
    19    9   10 ar   
    20    9   14 ar   
    21   10   11 ar   
    22   10   91 1    
    23   11   12 ar   
    24   11   58 1    
    25   12   13 ar   
    26   12   92 1    
    27   13   14 ar   
    28   13   15 1    
    29   14   93 1    
    30   15   16 1    
    31   15   94 1    
    32   15   95 1    
    33   16   17 1    
    34   17   18 1    
    35   17   96 1    
    36   17   97 1    
    37   18   19 1    
    38   18   22 1    
    39   18   98 1    
    40   19   20 am   BACKBONE|DICT|INTERRES
    41   19   21 2    
    42   20   99 1    
    43   20  100 1    
    44   22   23 am   BACKBONE|DICT|INTERRES
    45   22  101 1    
    46   23   24 2    
    47   23   25 1    
    48   25   26 1    
    49   25   27 1    
    50   25  102 1    
    51   26  103 1    
    52   26  104 1    
    53   26  105 1    
    54   27   28 am   BACKBONE|DICT|INTERRES
    55   27  106 1    
    56   28   29 2    
    57   28   30 1    
    58   30   31 1    
    59   30   32 1    
    60   30  107 1    
    61   31  108 1    
    62   31  109 1    
    63   31  110 1    
    64   32   33 am   BACKBONE|DICT|INTERRES
    65   32  111 1    
    66   33   34 2    
    67   33   35 1    
    68   35   36 1    
    69   35   37 1    
    70   35  112 1    
    71   36  113 1    
    72   36  114 1    
    73   36  115 1    
    74   37   38 am   BACKBONE|DICT|INTERRES
    75   37  116 1    
    76   38   39 2    
    77   38   40 1    
    78   40   41 1    
    79   40   42 1    
    80   40  117 1    
    81   41  118 1    
    82   41  119 1    
    83   41  120 1    
    84   42   43 am   BACKBONE|DICT|INTERRES
    85   42  121 1    
    86   43   44 2    
    87   43   45 1    
    88   45   46 1    
    89   45   47 1    
    90   45  122 1    
    91   46  123 1    
    92   46  124 1    
    93   46  125 1    
    94   47   48 am   BACKBONE|DICT|INTERRES
    95   47  126 1    
    96   48   49 2    
    97   48   50 1    
    98   50   51 1    
    99   50   52 1    
   100   50  127 1    
   101   51  128 1    
   102   51  129 1    
   103   51  130 1    
   104   52   53 am   BACKBONE|DICT|INTERRES
   105   52  131 1    
   106   53   54 2    
   107   53   55 1    
   108   55   56 1    
   109   55   59 1    
   110   55  132 1    
   111   56   57 1    
   112   56  133 1    
   113   56  134 1    
   114   57   58 1    
   115   58  135 1    
   116   58  136 1    
   117   59   60 am   BACKBONE|DICT|INTERRES
   118   59  137 1    
   119   60   61 2    
   120   60   62 1    
   121   62   63 1    
   122   62   64 1    
   123   62  138 1    
   124   63  139 1    
   125   63  140 1    
   126   63  141 1    
   127   64   65 am   BACKBONE|DICT|INTERRES
   128   64  142 1    
   129   65   66 2    
   130   65   67 1    
   131   67   68 1    
   132   67   69 1    
   133   67  143 1    
   134   68  144 1    
   135   68  145 1    
   136   68  146 1    
   137   69   70 am   BACKBONE|DICT|INTERRES
   138   69  147 1    
   139   70   71 2    
   140   70   72 1    
   141   72   73 1    
   142   72   74 1    
   143   72  148 1    
   144   73  149 1    
   145   73  150 1    
   146   73  151 1    
   147   74   75 am   BACKBONE|DICT|INTERRES
   148   74  152 1    
   149   75   76 2    
   150   75   77 1    
   151   77   78 1    
   152   77   79 1    
   153   77  153 1    
   154   78  154 1    
   155   78  155 1    
   156   78  156 1    
   157   79   80 am   BACKBONE|DICT|INTERRES
   158   79  157 1    
   159   80   81 2    
@<TRIPOS>SUBSTRUCTURE
     1 UNK         1 GROUP             0       ****    0 ROOT    
