@<TRIPOS>MOLECULE
3R207
157   159    1
SMALL
USER_CHARGES


@<TRIPOS>ATOM
      1 CA        -44.8635  -29.8805    8.6600 C.3       0 UNK        -0.1975 
      2 C         -45.7331  -29.4236    7.4981 C.2       0 UNK         0.4852 
      3 O         -45.2099  -28.9169    6.5049 O.2       0 UNK        -0.5216 
      4 N         -47.0553  -29.6038    7.6146 N.am      1 UNK        -0.4461 
      5 CA        -48.0612  -29.1435    6.6543 C.3       1 UNK         0.0864 
      6 C6        -49.4616  -29.7446    6.9521 C.3       14 UNK        -0.0898 
      7 S7        -50.0608  -29.4965    8.6655 S.3       14 UNK        -0.2598 
      8 C8        -51.8621  -29.7147    8.4639 C.3       14 UNK         0.0286 
      9 C9        -52.6380  -28.4028    8.3592 C.ar      14 UNK        -0.0844 
     10 C10       -52.1922  -27.3541    7.5471 C.ar      14 UNK        -0.0881 
     11 C11       -52.9254  -26.1688    7.4459 C.ar      14 UNK        -0.0643 
     12 C12       -54.1169  -26.0330    8.1628 C.ar      14 UNK        -0.0930 
     13 C13       -54.5874  -27.0750    8.9676 C.ar      14 UNK        -0.0827 
     14 C14       -53.8430  -28.2569    9.0567 C.ar      14 UNK        -0.1249 
     15 C15       -55.9208  -26.9289    9.6954 C.3       14 UNK         0.0141 
     16 S16       -55.7422  -26.9326   11.5099 S.3       14 UNK        -0.2313 
     17 C17       -55.8557  -28.7136   11.8963 C.3       14 UNK        -0.0915 
     18 CA        -56.7951  -29.0205   13.0940 C.3       13 UNK         0.0968 
     19 C         -57.0973  -30.5488   13.1822 C.2       13 UNK         0.5732 
     20 N         -56.7797  -31.2509   14.2644 N.am      13 UNK        -0.7310 
     21 O         -57.6455  -31.1150   12.2392 O.2       13 UNK        -0.5035 
     22 N         -56.2924  -28.4150   14.3369 N.am      13 UNK        -0.4233 
     23 C         -56.9909  -28.2632   15.4676 C.2       13 UNK         0.4989 
     24 O         -58.1929  -28.5172   15.5707 O.2       13 UNK        -0.4996 
     25 CA        -56.1880  -27.7786   16.6933 C.3       12 UNK         0.0216 
     26 CB        -56.9979  -27.8373   18.0060 C.3       12 UNK        -0.1964 
     27 N         -54.9053  -28.4839   16.8463 N.am      12 UNK        -0.4276 
     28 C         -54.7098  -29.8063   16.9586 C.2       12 UNK         0.5020 
     29 O         -55.6187  -30.6384   16.9514 O.2       12 UNK        -0.5489 
     30 CA        -53.2452  -30.2707   17.0172 C.3       11 UNK         0.0294 
     31 CB        -53.1096  -31.7897   17.2367 C.3       11 UNK        -0.2019 
     32 N         -52.5935  -29.9122   15.7591 N.am      11 UNK        -0.4493 
     33 C         -51.6682  -28.9575   15.6072 C.2       11 UNK         0.4932 
     34 O         -51.1647  -28.3366   16.5441 O.2       11 UNK        -0.5029 
     35 CA        -51.2515  -28.6047   14.1637 C.3       10 UNK         0.0280 
     36 CB        -51.7862  -29.5740   13.0869 C.3       10 UNK        -0.1976 
     37 N         -51.6048  -27.2258   13.8115 N.am      10 UNK        -0.4242 
     38 C         -52.7848  -26.6059   13.9673 C.2       10 UNK         0.5072 
     39 O         -53.7894  -27.1550   14.4206 O.2       10 UNK        -0.5224 
     40 CA        -52.8519  -25.1242   13.5422 C.3       9 UNK         0.0343 
     41 CB        -54.0540  -24.3756   14.1562 C.3       9 UNK        -0.2003 
     42 N         -51.5956  -24.4013   13.7801 N.am      9 UNK        -0.4272 
     43 C         -50.9793  -24.1801   14.9522 C.2       9 UNK         0.4988 
     44 O         -51.4702  -24.4567   16.0472 O.2       9 UNK        -0.5108 
     45 CA        -49.5572  -23.5817   14.9129 C.3       8 UNK         0.0248 
     46 CB        -48.5300  -24.6282   15.3783 C.3       8 UNK        -0.2001 
     47 N         -49.1547  -23.0899   13.5919 N.am      8 UNK        -0.4140 
     48 C         -49.5352  -21.9212   13.0588 C.2       8 UNK         0.5028 
     49 O         -50.2113  -21.0834   13.6568 O.2       8 UNK        -0.5428 
     50 CA        -49.1273  -21.6579   11.5957 C.3       7 UNK         0.0264 
     51 CB        -47.7165  -21.0542   11.5191 C.3       7 UNK        -0.1988 
     52 N         -49.2051  -22.8509   10.7430 N.am      7 UNK        -0.4454 
     53 C         -50.3346  -23.5390   10.5101 C.2       7 UNK         0.5027 
     54 O         -51.4279  -23.2327   10.9861 O.2       7 UNK        -0.5083 
     55 CA        -50.2207  -24.8152    9.6508 C.3       6 UNK         0.0844 
     56 C56       -50.1752  -24.4875    8.1397 C.3       14 UNK        -0.0967 
     57 S57       -51.6842  -23.6891    7.4934 S.3       14 UNK        -0.2604 
     58 C58       -52.4449  -25.0417    6.5440 C.3       14 UNK         0.0134 
     59 N         -49.0809  -25.6469   10.0544 N.am      6 UNK        -0.4116 
     60 C         -48.8929  -26.1604   11.2784 C.2       5 UNK         0.5034 
     61 O         -49.7004  -26.0565   12.1978 O.2       5 UNK        -0.5045 
     62 CA        -47.5419  -26.8349   11.5589 C.3       5 UNK         0.0224 
     63 CB        -47.4735  -28.2376   10.9446 C.3       5 UNK        -0.1978 
     64 N         -46.4141  -26.0211   11.0983 N.am      5 UNK        -0.4737 
     65 C         -46.0899  -24.8331   11.6290 C.2       4 UNK         0.5027 
     66 O         -46.6830  -24.3288   12.5816 O.2       4 UNK        -0.5211 
     67 CA        -44.9315  -24.0607   10.9745 C.3       4 UNK         0.0297 
     68 CB        -43.5960  -24.4481   11.6284 C.3       4 UNK        -0.1993 
     69 N         -44.8331  -24.2355    9.5214 N.am      4 UNK        -0.4486 
     70 C         -45.7901  -23.9272    8.6350 C.2       3 UNK         0.4961 
     71 O         -46.8998  -23.4942    8.9561 O.2       3 UNK        -0.5105 
     72 CA        -45.4728  -24.1514    7.1468 C.3       3 UNK         0.0299 
     73 CB        -44.1639  -24.9260    6.8747 C.3       3 UNK        -0.1972 
     74 N         -46.6009  -24.8595    6.5599 N.am      3 UNK        -0.4305 
     75 C         -47.0050  -24.8414    5.2895 C.2       2 UNK         0.5006 
     76 O         -46.4240  -24.2216    4.3965 O.2       2 UNK        -0.5106 
     77 CA        -48.2829  -25.6539    4.9750 C.3       2 UNK         0.0296 
     78 CB        -48.7016  -25.5455    3.4966 C.3       2 UNK        -0.2002 
     79 N         -48.2022  -27.0770    5.3360 N.am      2 UNK        -0.4032 
     80 C         -48.0968  -27.6027    6.5666 C.2       1 UNK         0.5000 
     81 O         -48.0377  -26.9297    7.6016 O.2       1 UNK        -0.5238 
     82 H82       -44.0974  -30.5702    8.3070 H         1 UNK         0.0889 
     83 H83       -45.4452  -30.3871    9.4299 H         1 UNK         0.0889 
     84 H84       -44.3679  -29.0239    9.1160 H         1 UNK         0.0889 
     85 H85       -47.4341  -30.0084    8.4587 H         1 UNK         0.3028 
     86 H86       -47.7498  -29.5193    5.6771 H         1 UNK         0.0864 
     87 H87       -49.4298  -30.8210    6.7765 H         1 UNK         0.0720 
     88 H88       -50.1980  -29.3615    6.2438 H         1 UNK         0.0720 
     89 H89       -52.0708  -30.3279    7.5865 H         1 UNK         0.0814 
     90 H90       -52.2171  -30.2864    9.3229 H         1 UNK         0.0814 
     91 H91       -51.2724  -27.4566    6.9912 H         1 UNK         0.1469 
     92 H92       -54.6833  -25.1154    8.0797 H         1 UNK         0.1381 
     93 H93       -54.2071  -29.0709    9.6664 H         1 UNK         0.1206 
     94 H94       -56.4006  -25.9906    9.4134 H         1 UNK         0.0813 
     95 H95       -56.6048  -27.7151    9.3741 H         1 UNK         0.0813 
     96 H96       -54.8515  -29.0853   12.0942 H         1 UNK         0.0638 
     97 H97       -56.1994  -29.2408   11.0053 H         1 UNK         0.0638 
     98 H98       -57.7577  -28.5517   12.8823 H         1 UNK         0.0568 
     99 H99       -56.3784  -30.8152   15.0870 H         1 UNK         0.3450 
    100 H100      -56.9963  -32.2342   14.2831 H         1 UNK         0.3450 
    101 H101      -55.3221  -28.1037   14.3274 H         1 UNK         0.2987 
    102 H102      -55.9427  -26.7331   16.4998 H         1 UNK         0.0766 
    103 H103      -57.9017  -27.2308   17.9358 H         1 UNK         0.0798 
    104 H104      -56.4183  -27.4565   18.8469 H         1 UNK         0.0798 
    105 H105      -57.3069  -28.8555   18.2452 H         1 UNK         0.0798 
    106 H106      -54.0830  -27.9021   16.7466 H         1 UNK         0.3198 
    107 H107      -52.7751  -29.7636   17.8627 H         1 UNK         0.0843 
    108 H108      -53.5925  -32.0935   18.1664 H         1 UNK         0.0831 
    109 H109      -52.0631  -32.0871   17.3033 H         1 UNK         0.0831 
    110 H110      -53.5690  -32.3602   16.4284 H         1 UNK         0.0831 
    111 H111      -52.9744  -30.3373   14.9258 H         1 UNK         0.3133 
    112 H112      -50.1620  -28.6541   14.1388 H         1 UNK         0.0566 
    113 H113      -51.4166  -29.2997   12.0981 H         1 UNK         0.0814 
    114 H114      -51.4580  -30.5969   13.2760 H         1 UNK         0.0814 
    115 H115      -52.8737  -29.5730   13.0397 H         1 UNK         0.0814 
    116 H116      -50.8564  -26.6876   13.3754 H         1 UNK         0.3091 
    117 H117      -52.9908  -25.1338   12.4601 H         1 UNK         0.0702 
    118 H118      -54.0258  -24.3868   15.2460 H         1 UNK         0.0785 
    119 H119      -54.9949  -24.8363   13.8523 H         1 UNK         0.0785 
    120 H120      -54.0822  -23.3365   13.8290 H         1 UNK         0.0785 
    121 H121      -51.1047  -24.1271   12.9374 H         1 UNK         0.2998 
    122 H122      -49.5356  -22.7471   15.6166 H         1 UNK         0.0697 
    123 H123      -48.5073  -25.4919   14.7125 H         1 UNK         0.0825 
    124 H124      -48.7656  -24.9937   16.3787 H         1 UNK         0.0825 
    125 H125      -47.5244  -24.2087   15.4145 H         1 UNK         0.0825 
    126 H126      -48.5305  -23.6872   13.0566 H         1 UNK         0.3029 
    127 H127      -49.8293  -20.9268   11.1889 H         1 UNK         0.0897 
    128 H128      -47.4254  -20.8482   10.4887 H         1 UNK         0.0792 
    129 H129      -47.6683  -20.1115   12.0657 H         1 UNK         0.0792 
    130 H130      -46.9694  -21.7176   11.9532 H         1 UNK         0.0792 
    131 H131      -48.3489  -23.1513   10.2840 H         1 UNK         0.3086 
    132 H132      -51.1166  -25.4124    9.8361 H         1 UNK         0.0583 
    133 H133      -49.3184  -23.8551    7.9016 H         1 UNK         0.1020 
    134 H134      -50.0293  -25.4125    7.5888 H         1 UNK         0.1020 
    135 H135      -53.2912  -24.6429    5.9827 H         1 UNK         0.0694 
    136 H136      -51.7361  -25.4108    5.8008 H         1 UNK         0.0694 
    137 H137      -48.3920  -25.8435    9.3388 H         1 UNK         0.2989 
    138 H138      -47.4534  -26.9419   12.6427 H         1 UNK         0.1055 
    139 H139      -48.3057  -28.8546   11.2871 H         1 UNK         0.0806 
    140 H140      -46.5523  -28.7498   11.2219 H         1 UNK         0.0806 
    141 H141      -47.5251  -28.1942    9.8593 H         1 UNK         0.0806 
    142 H142      -45.8846  -26.3591   10.3085 H         1 UNK         0.3061 
    143 H143      -45.1031  -22.9990   11.1604 H         1 UNK         0.0734 
    144 H144      -43.6361  -24.3048   12.7094 H         1 UNK         0.0832 
    145 H145      -43.3447  -25.4941   11.4484 H         1 UNK         0.0832 
    146 H146      -42.7762  -23.8347   11.2541 H         1 UNK         0.0832 
    147 H147      -43.9565  -24.5905    9.1675 H         1 UNK         0.3156 
    148 H148      -45.3994  -23.1633    6.6885 H         1 UNK         0.0589 
    149 H149      -44.1812  -25.9226    7.3188 H         1 UNK         0.0808 
    150 H150      -44.0002  -25.0517    5.8041 H         1 UNK         0.0808 
    151 H151      -43.2941  -24.3940    7.2617 H         1 UNK         0.0808 
    152 H152      -47.1376  -25.4404    7.2022 H         1 UNK         0.3098 
    153 H153      -49.0840  -25.2047    5.5605 H         1 UNK         0.0720 
    154 H154      -49.6521  -26.0472    3.3142 H         1 UNK         0.0791 
    155 H155      -47.9556  -25.9842    2.8326 H         1 UNK         0.0791 
    156 H156      -48.8293  -24.5032    3.2006 H         1 UNK         0.0791 
    157 H157      -48.2076  -27.7160    4.5540 H         1 UNK         0.3028 
@<TRIPOS>BOND
     1    1    2 1    
     2    1   82 1    
     3    1   83 1    
     4    1   84 1    
     5    2    3 2    
     6    2    4 am   BACKBONE|DICT|INTERRES
     7    4    5 1    
     8    4   85 1    
     9    5    6 1    
    10    5   80 1    
    11    5   86 1    
    12    6    7 1    
    13    6   87 1    
    14    6   88 1    
    15    7    8 1    
    16    8    9 1    
    17    8   89 1    
    18    8   90 1    
    19    9   10 ar   
    20    9   14 ar   
    21   10   11 ar   
    22   10   91 1    
    23   11   12 ar   
    24   11   58 1    
    25   12   13 ar   
    26   12   92 1    
    27   13   14 ar   
    28   13   15 1    
    29   14   93 1    
    30   15   16 1    
    31   15   94 1    
    32   15   95 1    
    33   16   17 1    
    34   17   18 1    
    35   17   96 1    
    36   17   97 1    
    37   18   19 1    
    38   18   22 1    
    39   18   98 1    
    40   19   20 am   BACKBONE|DICT|INTERRES
    41   19   21 2    
    42   20   99 1    
    43   20  100 1    
    44   22   23 am   BACKBONE|DICT|INTERRES
    45   22  101 1    
    46   23   24 2    
    47   23   25 1    
    48   25   26 1    
    49   25   27 1    
    50   25  102 1    
    51   26  103 1    
    52   26  104 1    
    53   26  105 1    
    54   27   28 am   BACKBONE|DICT|INTERRES
    55   27  106 1    
    56   28   29 2    
    57   28   30 1    
    58   30   31 1    
    59   30   32 1    
    60   30  107 1    
    61   31  108 1    
    62   31  109 1    
    63   31  110 1    
    64   32   33 am   BACKBONE|DICT|INTERRES
    65   32  111 1    
    66   33   34 2    
    67   33   35 1    
    68   35   36 1    
    69   35   37 1    
    70   35  112 1    
    71   36  113 1    
    72   36  114 1    
    73   36  115 1    
    74   37   38 am   BACKBONE|DICT|INTERRES
    75   37  116 1    
    76   38   39 2    
    77   38   40 1    
    78   40   41 1    
    79   40   42 1    
    80   40  117 1    
    81   41  118 1    
    82   41  119 1    
    83   41  120 1    
    84   42   43 am   BACKBONE|DICT|INTERRES
    85   42  121 1    
    86   43   44 2    
    87   43   45 1    
    88   45   46 1    
    89   45   47 1    
    90   45  122 1    
    91   46  123 1    
    92   46  124 1    
    93   46  125 1    
    94   47   48 am   BACKBONE|DICT|INTERRES
    95   47  126 1    
    96   48   49 2    
    97   48   50 1    
    98   50   51 1    
    99   50   52 1    
   100   50  127 1    
   101   51  128 1    
   102   51  129 1    
   103   51  130 1    
   104   52   53 am   BACKBONE|DICT|INTERRES
   105   52  131 1    
   106   53   54 2    
   107   53   55 1    
   108   55   56 1    
   109   55   59 1    
   110   55  132 1    
   111   56   57 1    
   112   56  133 1    
   113   56  134 1    
   114   57   58 1    
   115   58  135 1    
   116   58  136 1    
   117   59   60 am   BACKBONE|DICT|INTERRES
   118   59  137 1    
   119   60   61 2    
   120   60   62 1    
   121   62   63 1    
   122   62   64 1    
   123   62  138 1    
   124   63  139 1    
   125   63  140 1    
   126   63  141 1    
   127   64   65 am   BACKBONE|DICT|INTERRES
   128   64  142 1    
   129   65   66 2    
   130   65   67 1    
   131   67   68 1    
   132   67   69 1    
   133   67  143 1    
   134   68  144 1    
   135   68  145 1    
   136   68  146 1    
   137   69   70 am   BACKBONE|DICT|INTERRES
   138   69  147 1    
   139   70   71 2    
   140   70   72 1    
   141   72   73 1    
   142   72   74 1    
   143   72  148 1    
   144   73  149 1    
   145   73  150 1    
   146   73  151 1    
   147   74   75 am   BACKBONE|DICT|INTERRES
   148   74  152 1    
   149   75   76 2    
   150   75   77 1    
   151   77   78 1    
   152   77   79 1    
   153   77  153 1    
   154   78  154 1    
   155   78  155 1    
   156   78  156 1    
   157   79   80 am   BACKBONE|DICT|INTERRES
   158   79  157 1    
   159   80   81 2    
@<TRIPOS>SUBSTRUCTURE
     1 UNK         1 GROUP             0       ****    0 ROOT    
