@<TRIPOS>MOLECULE
3R207
157   159    1
SMALL
USER_CHARGES


@<TRIPOS>ATOM
      1 CA        -52.5917  -27.7501    8.1310 C.3       0 UNK        -0.1975 
      2 C         -52.1509  -26.9399    9.3364 C.2       0 UNK         0.4852 
      3 O         -52.6028  -25.8037    9.4955 O.2       0 UNK        -0.5216 
      4 N         -51.2779  -27.4962   10.1880 N.am      1 UNK        -0.4461 
      5 CA        -50.6856  -26.7860   11.3263 C.3       1 UNK         0.0864 
      6 C6        -49.7912  -27.6889   12.2002 C.3       14 UNK        -0.0898 
      7 S7        -50.6975  -28.9020   13.2104 S.3       14 UNK        -0.2598 
      8 C8        -49.9113  -30.4790   12.7522 C.3       14 UNK         0.0286 
      9 C9        -50.1678  -30.7908   11.2921 C.ar      14 UNK        -0.0844 
     10 C10       -49.1882  -30.5148   10.3396 C.ar      14 UNK        -0.0881 
     11 C11       -49.4660  -30.6405    8.9790 C.ar      14 UNK        -0.0643 
     12 C12       -50.7224  -31.1139    8.5769 C.ar      14 UNK        -0.0930 
     13 C13       -51.6965  -31.4416    9.5304 C.ar      14 UNK        -0.0827 
     14 C14       -51.4077  -31.2837   10.8870 C.ar      14 UNK        -0.1249 
     15 C15       -53.0649  -31.9602    9.1094 C.3       14 UNK         0.0141 
     16 S16       -54.3149  -30.6355    9.0359 S.3       14 UNK        -0.2313 
     17 C17       -54.6984  -30.3385   10.7980 C.3       14 UNK        -0.0915 
     18 CA        -55.9619  -29.4510   10.9703 C.3       13 UNK         0.0968 
     19 C         -56.5465  -29.5136   12.4136 C.2       13 UNK         0.5732 
     20 N         -56.8179  -28.3994   13.0857 N.am      13 UNK        -0.7310 
     21 O         -56.7935  -30.6023   12.9271 O.2       13 UNK        -0.5035 
     22 N         -55.7149  -28.0820   10.4957 N.am      13 UNK        -0.4233 
     23 C         -56.6271  -27.2895    9.9192 C.2       13 UNK         0.4989 
     24 O         -57.7742  -27.6507    9.6505 O.2       13 UNK        -0.4996 
     25 CA        -56.1765  -25.8530    9.5797 C.3       12 UNK         0.0216 
     26 CB        -57.3551  -24.8645    9.4498 C.3       12 UNK        -0.1964 
     27 N         -55.1531  -25.3340   10.4961 N.am      12 UNK        -0.4276 
     28 C         -55.2687  -25.1339   11.8158 C.2       12 UNK         0.5020 
     29 O         -56.3017  -25.3262   12.4623 O.2       12 UNK        -0.5489 
     30 CA        -53.9947  -24.6543   12.5359 C.3       11 UNK         0.0294 
     31 CB        -54.0515  -23.1403   12.7909 C.3       11 UNK        -0.2019 
     32 N         -53.7633  -25.3527   13.8041 N.am      11 UNK        -0.4493 
     33 C         -53.6755  -26.6798   13.9643 C.2       11 UNK         0.4932 
     34 O         -53.7108  -27.4784   13.0269 O.2       11 UNK        -0.5029 
     35 CA        -53.5213  -27.1822   15.4147 C.3       10 UNK         0.0280 
     36 CB        -53.6802  -28.7090   15.5388 C.3       10 UNK        -0.1976 
     37 N         -52.2560  -26.7728   16.0396 N.am      10 UNK        -0.4242 
     38 C         -51.9863  -25.5496   16.5130 C.2       10 UNK         0.5072 
     39 O         -52.7559  -24.5955   16.3838 O.2       10 UNK        -0.5224 
     40 CA        -50.6657  -25.3283   17.2803 C.3       9 UNK         0.0343 
     41 CB        -50.8387  -25.6944   18.7676 C.3       9 UNK        -0.2003 
     42 N         -49.4536  -25.9488   16.7188 N.am      9 UNK        -0.4272 
     43 C         -49.1467  -27.2498   16.5940 C.2       9 UNK         0.4988 
     44 O         -49.9241  -28.1637   16.8726 O.2       9 UNK        -0.5108 
     45 CA        -47.7472  -27.5635   16.0295 C.3       8 UNK         0.0248 
     46 CB        -47.5460  -29.0642   15.7307 C.3       8 UNK        -0.2001 
     47 N         -47.5320  -26.7506   14.8329 N.am      8 UNK        -0.4140 
     48 C         -46.3840  -26.5402   14.1765 C.2       8 UNK         0.5028 
     49 O         -45.2911  -27.0121   14.4969 O.2       8 UNK        -0.5428 
     50 CA        -46.4848  -25.5661   12.9876 C.3       7 UNK         0.0264 
     51 CB        -45.8212  -24.2231   13.3349 C.3       7 UNK        -0.1988 
     52 N         -45.9490  -26.0430   11.7085 N.am      7 UNK        -0.4454 
     53 C         -46.1537  -27.2210   11.0964 C.2       7 UNK         0.5027 
     54 O         -46.6475  -28.2037   11.6468 O.2       7 UNK        -0.5083 
     55 CA        -45.7525  -27.2945    9.5997 C.3       6 UNK         0.0844 
     56 C56       -46.2438  -28.5772    8.8568 C.3       14 UNK        -0.0967 
     57 S57       -47.9385  -28.4750    8.1634 S.3       14 UNK        -0.2604 
     58 C58       -48.4114  -30.2276    7.9610 C.3       14 UNK         0.0134 
     59 N         -46.1326  -26.0725    8.8765 N.am      6 UNK        -0.4116 
     60 C         -45.4729  -24.9088    8.8609 C.2       5 UNK         0.5034 
     61 O         -44.4231  -24.7328    9.4801 O.2       5 UNK        -0.5045 
     62 CA        -46.0938  -23.7156    8.1066 C.3       5 UNK         0.0224 
     63 CB        -45.1432  -23.1810    7.0158 C.3       5 UNK        -0.1978 
     64 N         -47.4499  -23.9298    7.5772 N.am      5 UNK        -0.4737 
     65 C         -47.8462  -24.7298    6.5743 C.2       4 UNK         0.5027 
     66 O         -47.0778  -25.4450    5.9326 O.2       4 UNK        -0.5211 
     67 CA        -49.3489  -24.7402    6.2301 C.3       4 UNK         0.0297 
     68 CB        -49.8880  -26.1686    6.0477 C.3       4 UNK        -0.1993 
     69 N         -50.1488  -24.0653    7.2555 N.am      4 UNK        -0.4486 
     70 C         -50.7719  -22.8887    7.0995 C.2       3 UNK         0.4961 
     71 O         -50.8041  -22.2653    6.0383 O.2       3 UNK        -0.5105 
     72 CA        -51.4612  -22.2820    8.3378 C.3       3 UNK         0.0299 
     73 CB        -52.9778  -22.5325    8.2917 C.3       3 UNK        -0.1972 
     74 N         -50.9233  -22.7734    9.6102 N.am      3 UNK        -0.4305 
     75 C         -49.6853  -22.5223   10.0642 C.2       2 UNK         0.5006 
     76 O         -48.8673  -21.8256    9.4642 O.2       2 UNK        -0.5106 
     77 CA        -49.2573  -23.2071   11.3753 C.3       2 UNK         0.0296 
     78 CB        -49.4478  -22.2614   12.5713 C.3       2 UNK        -0.2002 
     79 N         -49.9463  -24.4732   11.6441 N.am      2 UNK        -0.4032 
     80 C         -49.8814  -25.5557   10.8556 C.2       1 UNK         0.5000 
     81 O         -49.2289  -25.5974    9.8088 O.2       1 UNK        -0.5238 
     82 H82       -52.0781  -28.7082    8.0745 H         1 UNK         0.0889 
     83 H83       -52.3878  -27.1998    7.2147 H         1 UNK         0.0889 
     84 H84       -53.6642  -27.9314    8.1767 H         1 UNK         0.0889 
     85 H85       -50.9353  -28.4345   10.0290 H         1 UNK         0.3028 
     86 H86       -51.5084  -26.4325   11.9450 H         1 UNK         0.0864 
     87 H87       -49.2158  -27.0916   12.9005 H         1 UNK         0.0720 
     88 H88       -49.0676  -28.1922   11.5691 H         1 UNK         0.0720 
     89 H89       -48.8404  -30.4304   12.9546 H         1 UNK         0.0814 
     90 H90       -50.3122  -31.2765   13.3792 H         1 UNK         0.0814 
     91 H91       -48.2253  -30.1360   10.6537 H         1 UNK         0.1469 
     92 H92       -50.9473  -31.2164    7.5241 H         1 UNK         0.1381 
     93 H93       -52.1609  -31.5069   11.6299 H         1 UNK         0.1206 
     94 H94       -53.3986  -32.7436    9.7916 H         1 UNK         0.0813 
     95 H95       -52.9959  -32.4271    8.1258 H         1 UNK         0.0813 
     96 H96       -53.8408  -29.8681   11.2820 H         1 UNK         0.0638 
     97 H97       -54.8341  -31.3106   11.2751 H         1 UNK         0.0638 
     98 H98       -56.7421  -29.8898   10.3457 H         1 UNK         0.0568 
     99 H99       -57.2142  -28.4703   14.0082 H         1 UNK         0.3450 
    100 H100      -56.6117  -27.4894   12.6941 H         1 UNK         0.3450 
    101 H101      -54.8194  -27.6920   10.7532 H         1 UNK         0.2987 
    102 H102      -55.6953  -25.9177    8.6026 H         1 UNK         0.0766 
    103 H103      -57.0065  -23.8632    9.1972 H         1 UNK         0.0798 
    104 H104      -57.9309  -24.7967   10.3733 H         1 UNK         0.0798 
    105 H105      -58.0421  -25.1749    8.6616 H         1 UNK         0.0798 
    106 H106      -54.2236  -25.2456   10.0842 H         1 UNK         0.3198 
    107 H107      -53.1378  -24.8530   11.8942 H         1 UNK         0.0843 
    108 H108      -54.8795  -22.8764   13.4503 H         1 UNK         0.0831 
    109 H109      -54.1905  -22.5913   11.8584 H         1 UNK         0.0831 
    110 H110      -53.1306  -22.7762   13.2468 H         1 UNK         0.0831 
    111 H111      -53.6909  -24.7841   14.6426 H         1 UNK         0.3133 
    112 H112      -54.3390  -26.7353   15.9841 H         1 UNK         0.0566 
    113 H113      -53.6895  -29.0225   16.5827 H         1 UNK         0.0814 
    114 H114      -54.6183  -29.0420   15.0928 H         1 UNK         0.0814 
    115 H115      -52.8762  -29.2456   15.0375 H         1 UNK         0.0814 
    116 H116      -51.5548  -27.4948   16.1883 H         1 UNK         0.3091 
    117 H117      -50.4752  -24.2544   17.2393 H         1 UNK         0.0702 
    118 H118      -49.9512  -25.4365   19.3455 H         1 UNK         0.0785 
    119 H119      -51.0318  -26.7586   18.9068 H         1 UNK         0.0785 
    120 H120      -51.6784  -25.1540   19.2070 H         1 UNK         0.0785 
    121 H121      -48.7344  -25.2855   16.4646 H         1 UNK         0.2998 
    122 H122      -47.0199  -27.2606   16.7852 H         1 UNK         0.0697 
    123 H123      -48.2579  -29.4192   14.9877 H         1 UNK         0.0825 
    124 H124      -47.6876  -29.6642   16.6305 H         1 UNK         0.0825 
    125 H125      -46.5429  -29.2739   15.3604 H         1 UNK         0.0825 
    126 H126      -48.3666  -26.3020   14.4857 H         1 UNK         0.3029 
    127 H127      -47.5395  -25.3643   12.8060 H         1 UNK         0.0897 
    128 H128      -46.2244  -23.8124   14.2618 H         1 UNK         0.0792 
    129 H129      -45.9867  -23.4792   12.5554 H         1 UNK         0.0792 
    130 H130      -44.7441  -24.3329   13.4693 H         1 UNK         0.0792 
    131 H131      -45.4383  -25.3556   11.1667 H         1 UNK         0.3086 
    132 H132      -44.6618  -27.3470    9.6081 H         1 UNK         0.0583 
    133 H133      -45.5773  -28.7633    8.0134 H         1 UNK         0.1020 
    134 H134      -46.1501  -29.4624    9.4880 H         1 UNK         0.1020 
    135 H135      -48.7880  -30.3652    6.9465 H         1 UNK         0.0694 
    136 H136      -47.5377  -30.8735    8.0552 H         1 UNK         0.0694 
    137 H137      -47.0195  -26.1238    8.3929 H         1 UNK         0.2989 
    138 H138      -46.2014  -22.9275    8.8540 H         1 UNK         0.1055 
    139 H139      -44.1847  -22.8853    7.4444 H         1 UNK         0.0806 
    140 H140      -45.5594  -22.3032    6.5216 H         1 UNK         0.0806 
    141 H141      -44.9350  -23.9305    6.2518 H         1 UNK         0.0806 
    142 H142      -48.1675  -23.3814    8.0363 H         1 UNK         0.3061 
    143 H143      -49.4416  -24.2261    5.2715 H         1 UNK         0.0734 
    144 H144      -50.9025  -26.1532    5.6507 H         1 UNK         0.0832 
    145 H145      -49.2800  -26.7429    5.3476 H         1 UNK         0.0832 
    146 H146      -49.9040  -26.7120    6.9919 H         1 UNK         0.0832 
    147 H147      -50.1526  -24.5068    8.1693 H         1 UNK         0.3156 
    148 H148      -51.2968  -21.2028    8.3057 H         1 UNK         0.0589 
    149 H149      -53.2142  -23.5961    8.2702 H         1 UNK         0.0808 
    150 H150      -53.4840  -22.0904    9.1499 H         1 UNK         0.0808 
    151 H151      -53.4155  -22.0891    7.3962 H         1 UNK         0.0808 
    152 H152      -51.5182  -23.3930   10.1401 H         1 UNK         0.3098 
    153 H153      -48.1921  -23.4278   11.2817 H         1 UNK         0.0720 
    154 H154      -49.0490  -22.6940   13.4891 H         1 UNK         0.0791 
    155 H155      -50.4996  -22.0253   12.7380 H         1 UNK         0.0791 
    156 H156      -48.9247  -21.3178   12.4088 H         1 UNK         0.0791 
    157 H157      -50.5086  -24.5063   12.4820 H         1 UNK         0.3028 
@<TRIPOS>BOND
     1    1    2 1    
     2    1   82 1    
     3    1   83 1    
     4    1   84 1    
     5    2    3 2    
     6    2    4 am   BACKBONE|DICT|INTERRES
     7    4    5 1    
     8    4   85 1    
     9    5    6 1    
    10    5   80 1    
    11    5   86 1    
    12    6    7 1    
    13    6   87 1    
    14    6   88 1    
    15    7    8 1    
    16    8    9 1    
    17    8   89 1    
    18    8   90 1    
    19    9   10 ar   
    20    9   14 ar   
    21   10   11 ar   
    22   10   91 1    
    23   11   12 ar   
    24   11   58 1    
    25   12   13 ar   
    26   12   92 1    
    27   13   14 ar   
    28   13   15 1    
    29   14   93 1    
    30   15   16 1    
    31   15   94 1    
    32   15   95 1    
    33   16   17 1    
    34   17   18 1    
    35   17   96 1    
    36   17   97 1    
    37   18   19 1    
    38   18   22 1    
    39   18   98 1    
    40   19   20 am   BACKBONE|DICT|INTERRES
    41   19   21 2    
    42   20   99 1    
    43   20  100 1    
    44   22   23 am   BACKBONE|DICT|INTERRES
    45   22  101 1    
    46   23   24 2    
    47   23   25 1    
    48   25   26 1    
    49   25   27 1    
    50   25  102 1    
    51   26  103 1    
    52   26  104 1    
    53   26  105 1    
    54   27   28 am   BACKBONE|DICT|INTERRES
    55   27  106 1    
    56   28   29 2    
    57   28   30 1    
    58   30   31 1    
    59   30   32 1    
    60   30  107 1    
    61   31  108 1    
    62   31  109 1    
    63   31  110 1    
    64   32   33 am   BACKBONE|DICT|INTERRES
    65   32  111 1    
    66   33   34 2    
    67   33   35 1    
    68   35   36 1    
    69   35   37 1    
    70   35  112 1    
    71   36  113 1    
    72   36  114 1    
    73   36  115 1    
    74   37   38 am   BACKBONE|DICT|INTERRES
    75   37  116 1    
    76   38   39 2    
    77   38   40 1    
    78   40   41 1    
    79   40   42 1    
    80   40  117 1    
    81   41  118 1    
    82   41  119 1    
    83   41  120 1    
    84   42   43 am   BACKBONE|DICT|INTERRES
    85   42  121 1    
    86   43   44 2    
    87   43   45 1    
    88   45   46 1    
    89   45   47 1    
    90   45  122 1    
    91   46  123 1    
    92   46  124 1    
    93   46  125 1    
    94   47   48 am   BACKBONE|DICT|INTERRES
    95   47  126 1    
    96   48   49 2    
    97   48   50 1    
    98   50   51 1    
    99   50   52 1    
   100   50  127 1    
   101   51  128 1    
   102   51  129 1    
   103   51  130 1    
   104   52   53 am   BACKBONE|DICT|INTERRES
   105   52  131 1    
   106   53   54 2    
   107   53   55 1    
   108   55   56 1    
   109   55   59 1    
   110   55  132 1    
   111   56   57 1    
   112   56  133 1    
   113   56  134 1    
   114   57   58 1    
   115   58  135 1    
   116   58  136 1    
   117   59   60 am   BACKBONE|DICT|INTERRES
   118   59  137 1    
   119   60   61 2    
   120   60   62 1    
   121   62   63 1    
   122   62   64 1    
   123   62  138 1    
   124   63  139 1    
   125   63  140 1    
   126   63  141 1    
   127   64   65 am   BACKBONE|DICT|INTERRES
   128   64  142 1    
   129   65   66 2    
   130   65   67 1    
   131   67   68 1    
   132   67   69 1    
   133   67  143 1    
   134   68  144 1    
   135   68  145 1    
   136   68  146 1    
   137   69   70 am   BACKBONE|DICT|INTERRES
   138   69  147 1    
   139   70   71 2    
   140   70   72 1    
   141   72   73 1    
   142   72   74 1    
   143   72  148 1    
   144   73  149 1    
   145   73  150 1    
   146   73  151 1    
   147   74   75 am   BACKBONE|DICT|INTERRES
   148   74  152 1    
   149   75   76 2    
   150   75   77 1    
   151   77   78 1    
   152   77   79 1    
   153   77  153 1    
   154   78  154 1    
   155   78  155 1    
   156   78  156 1    
   157   79   80 am   BACKBONE|DICT|INTERRES
   158   79  157 1    
   159   80   81 2    
@<TRIPOS>SUBSTRUCTURE
     1 UNK         1 GROUP             0       ****    0 ROOT    
