@<TRIPOS>MOLECULE
3R207
157   159    1
SMALL
USER_CHARGES


@<TRIPOS>ATOM
      1 CA        -48.0115  -29.1188    2.3214 C.3       0 UNK        -0.1975 
      2 C         -48.1304  -28.3534    3.6310 C.2       0 UNK         0.4852 
      3 O         -47.9600  -27.1344    3.6435 O.2       0 UNK        -0.5216 
      4 N         -48.4182  -29.0605    4.7329 N.am      1 UNK        -0.4461 
      5 CA        -48.5722  -28.4909    6.0797 C.3       1 UNK         0.0864 
      6 C6        -49.5567  -29.3367    6.9332 C.3       14 UNK        -0.0898 
      7 S7        -50.6545  -28.3035    7.9589 S.3       14 UNK        -0.2598 
      8 C8        -52.1035  -28.1613    6.8666 C.3       14 UNK         0.0286 
      9 C9        -53.2285  -27.3772    7.5261 C.ar      14 UNK        -0.0844 
     10 C10       -53.5272  -26.0729    7.1173 C.ar      14 UNK        -0.0881 
     11 C11       -54.5800  -25.3637    7.7092 C.ar      14 UNK        -0.0643 
     12 C12       -55.3291  -25.9728    8.7222 C.ar      14 UNK        -0.0930 
     13 C13       -55.0489  -27.2815    9.1297 C.ar      14 UNK        -0.0827 
     14 C14       -53.9986  -27.9773    8.5258 C.ar      14 UNK        -0.1249 
     15 C15       -55.9104  -27.9551   10.1896 C.3       14 UNK         0.0141 
     16 S16       -55.2571  -27.6946   11.8670 S.3       14 UNK        -0.2313 
     17 C17       -54.0230  -29.0317   12.0216 C.3       14 UNK        -0.0915 
     18 CA        -54.4087  -30.0836   13.0926 C.3       13 UNK         0.0968 
     19 C         -53.3878  -31.2501   13.1147 C.2       13 UNK         0.5732 
     20 N         -53.6821  -32.3468   12.4297 N.am      13 UNK        -0.7310 
     21 O         -52.3153  -31.1543   13.7078 O.2       13 UNK        -0.5035 
     22 N         -54.5570  -29.4865   14.4274 N.am      13 UNK        -0.4233 
     23 C         -55.3506  -29.9870   15.3831 C.2       13 UNK         0.4989 
     24 O         -56.0401  -30.9982   15.2326 O.2       13 UNK        -0.4996 
     25 CA        -55.4186  -29.2100   16.7132 C.3       12 UNK         0.0216 
     26 CB        -56.1536  -29.9791   17.8329 C.3       12 UNK        -0.1964 
     27 N         -54.1143  -28.7265   17.1762 N.am      12 UNK        -0.4276 
     28 C         -53.0435  -29.4562   17.5304 C.2       12 UNK         0.5020 
     29 O         -53.0315  -30.6879   17.5489 O.2       12 UNK        -0.5489 
     30 CA        -51.7665  -28.6912   17.9371 C.3       11 UNK         0.0294 
     31 CB        -50.5279  -29.2582   17.2193 C.3       11 UNK        -0.2019 
     32 N         -51.8696  -27.2627   17.6310 N.am      11 UNK        -0.4493 
     33 C         -52.1154  -26.2867   18.5166 C.2       11 UNK         0.4932 
     34 O         -52.1959  -26.4702   19.7311 O.2       11 UNK        -0.5029 
     35 CA        -52.3368  -24.8652   17.9580 C.3       10 UNK         0.0280 
     36 CB        -51.0494  -24.0359   18.0847 C.3       10 UNK        -0.1976 
     37 N         -52.7919  -24.8445   16.5628 N.am      10 UNK        -0.4242 
     38 C         -53.9680  -25.3377   16.1389 C.2       10 UNK         0.5072 
     39 O         -54.8279  -25.7833   16.8985 O.2       10 UNK        -0.5224 
     40 CA        -54.1962  -25.4468   14.6186 C.3       9 UNK         0.0343 
     41 CB        -54.9854  -24.2363   14.1005 C.3       9 UNK        -0.2003 
     42 N         -52.9559  -25.5933   13.8499 N.am      9 UNK        -0.4272 
     43 C         -52.0595  -26.5775   14.0296 C.2       9 UNK         0.4988 
     44 O         -52.2821  -27.5513   14.7485 O.2       9 UNK        -0.5108 
     45 CA        -50.6671  -26.4409   13.3787 C.3       8 UNK         0.0248 
     46 CB        -50.4697  -27.4943   12.2776 C.3       8 UNK        -0.2001 
     47 N         -50.3794  -25.1092   12.8377 N.am      8 UNK        -0.4140 
     48 C         -50.3501  -23.9693   13.5502 C.2       8 UNK         0.5028 
     49 O         -50.4678  -23.9333   14.7759 O.2       8 UNK        -0.5428 
     50 CA        -50.2660  -22.6428   12.7690 C.3       7 UNK         0.0264 
     51 CB        -48.8357  -22.0849   12.8142 C.3       7 UNK        -0.1988 
     52 N         -50.7162  -22.7608   11.3757 N.am      7 UNK        -0.4454 
     53 C         -51.9623  -23.1103   11.0091 C.2       7 UNK         0.5027 
     54 O         -52.8848  -23.2293   11.8158 O.2       7 UNK        -0.5083 
     55 CA        -52.2260  -23.4586    9.5261 C.3       6 UNK         0.0844 
     56 C56       -53.2143  -22.4571    8.8815 C.3       14 UNK        -0.0967 
     57 S57       -53.5452  -22.8156    7.1212 S.3       14 UNK        -0.2604 
     58 C58       -54.9565  -23.9666    7.2206 C.3       14 UNK         0.0134 
     59 N         -51.0130  -23.6491    8.7217 N.am      6 UNK        -0.4116 
     60 C         -50.1056  -24.6128    8.9168 C.2       5 UNK         0.5034 
     61 O         -50.1474  -25.3927    9.8701 O.2       5 UNK        -0.5045 
     62 CA        -48.9337  -24.7059    7.9193 C.3       5 UNK         0.0224 
     63 CB        -48.8309  -23.5265    6.9255 C.3       5 UNK        -0.1978 
     64 N         -47.6658  -24.9114    8.6261 N.am      5 UNK        -0.4737 
     65 C         -47.1491  -24.1109    9.5698 C.2       4 UNK         0.5027 
     66 O         -47.5939  -22.9966    9.8480 O.2       4 UNK        -0.5211 
     67 CA        -45.9626  -24.6671   10.3679 C.3       4 UNK         0.0297 
     68 CB        -46.4553  -25.6843   11.4122 C.3       4 UNK        -0.1993 
     69 N         -44.9479  -25.2892    9.5164 N.am      4 UNK        -0.4486 
     70 C         -44.0590  -24.6103    8.7767 C.2       3 UNK         0.4961 
     71 O         -44.0169  -23.3811    8.7148 O.2       3 UNK        -0.5105 
     72 CA        -43.0125  -25.4312    7.9994 C.3       3 UNK         0.0299 
     73 CB        -41.6842  -25.4715    8.7730 C.3       3 UNK        -0.1972 
     74 N         -43.4481  -26.8029    7.7246 N.am      3 UNK        -0.4305 
     75 C         -44.3069  -27.1400    6.7540 C.2       2 UNK         0.5006 
     76 O         -44.7522  -26.3345    5.9336 O.2       2 UNK        -0.5106 
     77 CA        -44.7305  -28.6229    6.6701 C.3       2 UNK         0.0296 
     78 CB        -44.4996  -29.4202    7.9756 C.3       2 UNK        -0.2002 
     79 N         -46.1192  -28.7717    6.2184 N.am      2 UNK        -0.4032 
     80 C         -47.2193  -28.2644    6.7999 C.2       1 UNK         0.5000 
     81 O         -47.1957  -27.6373    7.8618 O.2       1 UNK        -0.5238 
     82 H82       -48.1845  -30.1867    2.4545 H         1 UNK         0.0889 
     83 H83       -47.0161  -28.9864    1.8983 H         1 UNK         0.0889 
     84 H84       -48.7398  -28.7452    1.6020 H         1 UNK         0.0889 
     85 H85       -48.5492  -30.0603    4.6598 H         1 UNK         0.3028 
     86 H86       -49.0069  -27.4985    5.9476 H         1 UNK         0.0864 
     87 H87       -49.0292  -30.0390    7.5821 H         1 UNK         0.0720 
     88 H88       -50.1880  -29.9594    6.2972 H         1 UNK         0.0720 
     89 H89       -52.4650  -29.1581    6.6092 H         1 UNK         0.0814 
     90 H90       -51.8024  -27.6899    5.9297 H         1 UNK         0.0814 
     91 H91       -52.9491  -25.6104    6.3292 H         1 UNK         0.1469 
     92 H92       -56.1498  -25.4376    9.1800 H         1 UNK         0.1381 
     93 H93       -53.7796  -28.9924    8.8253 H         1 UNK         0.1206 
     94 H94       -56.9233  -27.5519   10.1479 H         1 UNK         0.0813 
     95 H95       -56.0067  -29.0228    9.9866 H         1 UNK         0.0813 
     96 H96       -53.8937  -29.5158   11.0536 H         1 UNK         0.0638 
     97 H97       -53.0613  -28.5825   12.2577 H         1 UNK         0.0638 
     98 H98       -55.3769  -30.4935   12.7968 H         1 UNK         0.0568 
     99 H99       -53.0218  -33.1081   12.4205 H         1 UNK         0.3450 
    100 H100      -54.5543  -32.4346   11.9320 H         1 UNK         0.3450 
    101 H101      -53.9302  -28.7179   14.6394 H         1 UNK         0.2987 
    102 H102      -56.0067  -28.3163   16.4992 H         1 UNK         0.0766 
    103 H103      -57.1774  -30.2138   17.5390 H         1 UNK         0.0798 
    104 H104      -55.6605  -30.9224   18.0694 H         1 UNK         0.0798 
    105 H105      -56.2087  -29.3902   18.7484 H         1 UNK         0.0798 
    106 H106      -54.0286  -27.7172   17.2126 H         1 UNK         0.3198 
    107 H107      -51.6340  -28.8378   19.0110 H         1 UNK         0.0843 
    108 H108      -50.3666  -30.3042   17.4832 H         1 UNK         0.0831 
    109 H109      -49.6246  -28.7137   17.4945 H         1 UNK         0.0831 
    110 H110      -50.6330  -29.2107   16.1346 H         1 UNK         0.0831 
    111 H111      -51.8564  -27.0388   16.6411 H         1 UNK         0.3133 
    112 H112      -53.1095  -24.3903   18.5661 H         1 UNK         0.0566 
    113 H113      -51.2011  -23.0110   17.7456 H         1 UNK         0.0814 
    114 H114      -50.7154  -23.9881   19.1221 H         1 UNK         0.0814 
    115 H115      -50.2349  -24.4646   17.4992 H         1 UNK         0.0814 
    116 H116      -52.1222  -24.5085   15.8760 H         1 UNK         0.3091 
    117 H117      -54.7964  -26.3422   14.4496 H         1 UNK         0.0702 
    118 H118      -55.2321  -24.3501   13.0444 H         1 UNK         0.0785 
    119 H119      -54.4227  -23.3089   14.2151 H         1 UNK         0.0785 
    120 H120      -55.9253  -24.1202   14.6419 H         1 UNK         0.0785 
    121 H121      -52.7330  -24.8353   13.2147 H         1 UNK         0.2998 
    122 H122      -49.9344  -26.6344   14.1645 H         1 UNK         0.0697 
    123 H123      -51.1670  -27.3495   11.4511 H         1 UNK         0.0825 
    124 H124      -50.6235  -28.5023   12.6660 H         1 UNK         0.0825 
    125 H125      -49.4601  -27.4568   11.8677 H         1 UNK         0.0825 
    126 H126      -50.2825  -25.0567   11.8268 H         1 UNK         0.3029 
    127 H127      -50.9264  -21.9300   13.2676 H         1 UNK         0.0897 
    128 H128      -48.7491  -21.1549   12.2521 H         1 UNK         0.0792 
    129 H129      -48.5364  -21.8725   13.8415 H         1 UNK         0.0792 
    130 H130      -48.1128  -22.7931   12.4095 H         1 UNK         0.0792 
    131 H131      -49.9999  -22.7033   10.6632 H         1 UNK         0.3086 
    132 H132      -52.7225  -24.4305    9.5512 H         1 UNK         0.0583 
    133 H133      -54.1602  -22.4468    9.4271 H         1 UNK         0.1020 
    134 H134      -52.8198  -21.4411    8.9459 H         1 UNK         0.1020 
    135 H135      -55.7304  -23.5255    7.8507 H         1 UNK         0.0694 
    136 H136      -55.3927  -24.0609    6.2254 H         1 UNK         0.0694 
    137 H137      -50.9096  -23.0361    7.9266 H         1 UNK         0.2989 
    138 H138      -49.1124  -25.6124    7.3423 H         1 UNK         0.1055 
    139 H139      -47.9764  -23.6544    6.2606 H         1 UNK         0.0806 
    140 H140      -48.7110  -22.5681    7.4320 H         1 UNK         0.0806 
    141 H141      -49.7159  -23.4626    6.2910 H         1 UNK         0.0806 
    142 H142      -47.2637  -25.8382    8.5019 H         1 UNK         0.3061 
    143 H143      -45.5014  -23.8334   10.9025 H         1 UNK         0.0734 
    144 H144      -47.2102  -25.2408   12.0631 H         1 UNK         0.0832 
    145 H145      -46.9082  -26.5598   10.9441 H         1 UNK         0.0832 
    146 H146      -45.6401  -26.0268   12.0497 H         1 UNK         0.0832 
    147 H147      -44.9310  -26.2976    9.4846 H         1 UNK         0.3156 
    148 H148      -42.8334  -24.9223    7.0496 H         1 UNK         0.0589 
    149 H149      -41.7911  -25.9697    9.7375 H         1 UNK         0.0808 
    150 H150      -40.9110  -25.9929    8.2082 H         1 UNK         0.0808 
    151 H151      -41.3156  -24.4631    8.9672 H         1 UNK         0.0808 
    152 H152      -43.1057  -27.5258    8.3413 H         1 UNK         0.3098 
    153 H153      -44.1085  -29.0703    5.8935 H         1 UNK         0.0720 
    154 H154      -44.8576  -30.4449    7.8747 H         1 UNK         0.0791 
    155 H155      -45.0190  -28.9753    8.8254 H         1 UNK         0.0791 
    156 H156      -43.4401  -29.4839    8.2256 H         1 UNK         0.0791 
    157 H157      -46.2418  -29.2365    5.3307 H         1 UNK         0.3028 
@<TRIPOS>BOND
     1    1    2 1    
     2    1   82 1    
     3    1   83 1    
     4    1   84 1    
     5    2    3 2    
     6    2    4 am   BACKBONE|DICT|INTERRES
     7    4    5 1    
     8    4   85 1    
     9    5    6 1    
    10    5   80 1    
    11    5   86 1    
    12    6    7 1    
    13    6   87 1    
    14    6   88 1    
    15    7    8 1    
    16    8    9 1    
    17    8   89 1    
    18    8   90 1    
    19    9   10 ar   
    20    9   14 ar   
    21   10   11 ar   
    22   10   91 1    
    23   11   12 ar   
    24   11   58 1    
    25   12   13 ar   
    26   12   92 1    
    27   13   14 ar   
    28   13   15 1    
    29   14   93 1    
    30   15   16 1    
    31   15   94 1    
    32   15   95 1    
    33   16   17 1    
    34   17   18 1    
    35   17   96 1    
    36   17   97 1    
    37   18   19 1    
    38   18   22 1    
    39   18   98 1    
    40   19   20 am   BACKBONE|DICT|INTERRES
    41   19   21 2    
    42   20   99 1    
    43   20  100 1    
    44   22   23 am   BACKBONE|DICT|INTERRES
    45   22  101 1    
    46   23   24 2    
    47   23   25 1    
    48   25   26 1    
    49   25   27 1    
    50   25  102 1    
    51   26  103 1    
    52   26  104 1    
    53   26  105 1    
    54   27   28 am   BACKBONE|DICT|INTERRES
    55   27  106 1    
    56   28   29 2    
    57   28   30 1    
    58   30   31 1    
    59   30   32 1    
    60   30  107 1    
    61   31  108 1    
    62   31  109 1    
    63   31  110 1    
    64   32   33 am   BACKBONE|DICT|INTERRES
    65   32  111 1    
    66   33   34 2    
    67   33   35 1    
    68   35   36 1    
    69   35   37 1    
    70   35  112 1    
    71   36  113 1    
    72   36  114 1    
    73   36  115 1    
    74   37   38 am   BACKBONE|DICT|INTERRES
    75   37  116 1    
    76   38   39 2    
    77   38   40 1    
    78   40   41 1    
    79   40   42 1    
    80   40  117 1    
    81   41  118 1    
    82   41  119 1    
    83   41  120 1    
    84   42   43 am   BACKBONE|DICT|INTERRES
    85   42  121 1    
    86   43   44 2    
    87   43   45 1    
    88   45   46 1    
    89   45   47 1    
    90   45  122 1    
    91   46  123 1    
    92   46  124 1    
    93   46  125 1    
    94   47   48 am   BACKBONE|DICT|INTERRES
    95   47  126 1    
    96   48   49 2    
    97   48   50 1    
    98   50   51 1    
    99   50   52 1    
   100   50  127 1    
   101   51  128 1    
   102   51  129 1    
   103   51  130 1    
   104   52   53 am   BACKBONE|DICT|INTERRES
   105   52  131 1    
   106   53   54 2    
   107   53   55 1    
   108   55   56 1    
   109   55   59 1    
   110   55  132 1    
   111   56   57 1    
   112   56  133 1    
   113   56  134 1    
   114   57   58 1    
   115   58  135 1    
   116   58  136 1    
   117   59   60 am   BACKBONE|DICT|INTERRES
   118   59  137 1    
   119   60   61 2    
   120   60   62 1    
   121   62   63 1    
   122   62   64 1    
   123   62  138 1    
   124   63  139 1    
   125   63  140 1    
   126   63  141 1    
   127   64   65 am   BACKBONE|DICT|INTERRES
   128   64  142 1    
   129   65   66 2    
   130   65   67 1    
   131   67   68 1    
   132   67   69 1    
   133   67  143 1    
   134   68  144 1    
   135   68  145 1    
   136   68  146 1    
   137   69   70 am   BACKBONE|DICT|INTERRES
   138   69  147 1    
   139   70   71 2    
   140   70   72 1    
   141   72   73 1    
   142   72   74 1    
   143   72  148 1    
   144   73  149 1    
   145   73  150 1    
   146   73  151 1    
   147   74   75 am   BACKBONE|DICT|INTERRES
   148   74  152 1    
   149   75   76 2    
   150   75   77 1    
   151   77   78 1    
   152   77   79 1    
   153   77  153 1    
   154   78  154 1    
   155   78  155 1    
   156   78  156 1    
   157   79   80 am   BACKBONE|DICT|INTERRES
   158   79  157 1    
   159   80   81 2    
@<TRIPOS>SUBSTRUCTURE
     1 UNK         1 GROUP             0       ****    0 ROOT    
