@<TRIPOS>MOLECULE
3R207
157   159    1
SMALL
USER_CHARGES


@<TRIPOS>ATOM
      1 CA        -44.5439  -27.5638    9.3453 C.3       0 UNK        -0.1975 
      2 C         -45.6646  -27.6922    8.3248 C.2       0 UNK         0.4852 
      3 O         -46.2881  -26.6903    7.9755 O.2       0 UNK        -0.5216 
      4 N         -45.9104  -28.9166    7.8371 N.am      1 UNK        -0.4461 
      5 CA        -46.9613  -29.2806    6.8771 C.3       1 UNK         0.0864 
      6 C6        -48.3861  -29.1670    7.4881 C.3       14 UNK        -0.0898 
      7 S7        -49.5217  -30.4118    6.7883 S.3       14 UNK        -0.2598 
      8 C8        -50.8504  -29.3662    6.0991 C.3       14 UNK         0.0286 
      9 C9        -51.6635  -28.6035    7.1456 C.ar      14 UNK        -0.0844 
     10 C10       -52.1664  -27.3373    6.8276 C.ar      14 UNK        -0.0881 
     11 C11       -52.9217  -26.6153    7.7562 C.ar      14 UNK        -0.0643 
     12 C12       -53.1597  -27.1608    9.0190 C.ar      14 UNK        -0.0930 
     13 C13       -52.6702  -28.4249    9.3538 C.ar      14 UNK        -0.0827 
     14 C14       -51.9389  -29.1479    8.4074 C.ar      14 UNK        -0.1249 
     15 C15       -52.8775  -28.9842   10.7544 C.3       14 UNK         0.0141 
     16 S16       -54.4945  -29.8024   10.9761 S.3       14 UNK        -0.2313 
     17 C17       -55.6545  -28.3974   11.0995 C.3       14 UNK        -0.0915 
     18 CA        -55.5367  -27.6396   12.4473 C.3       13 UNK         0.0968 
     19 C         -56.2782  -26.2792   12.3977 C.2       13 UNK         0.5732 
     20 N         -55.5470  -25.1745   12.3313 N.am      13 UNK        -0.7310 
     21 O         -57.5065  -26.2262   12.3812 O.2       13 UNK        -0.5035 
     22 N         -55.9864  -28.4743   13.5690 N.am      13 UNK        -0.4233 
     23 C         -55.7290  -28.2087   14.8538 C.2       13 UNK         0.4989 
     24 O         -55.0595  -27.2423   15.2245 O.2       13 UNK        -0.4996 
     25 CA        -56.2985  -29.1976   15.8861 C.3       12 UNK         0.0216 
     26 CB        -55.7798  -30.6310   15.6645 C.3       12 UNK        -0.1964 
     27 N         -55.9197  -28.7757   17.2332 N.am      12 UNK        -0.4276 
     28 C         -56.7249  -28.1574   18.1050 C.2       12 UNK         0.5020 
     29 O         -57.9301  -27.9783   17.9209 O.2       12 UNK        -0.5489 
     30 CA        -56.0853  -27.6513   19.4110 C.3       11 UNK         0.0294 
     31 CB        -56.3362  -28.6480   20.5543 C.3       11 UNK        -0.2019 
     32 N         -54.6449  -27.4109   19.2913 N.am      11 UNK        -0.4493 
     33 C         -54.0912  -26.3869   18.6273 C.2       11 UNK         0.4932 
     34 O         -54.7381  -25.4846   18.0953 O.2       11 UNK        -0.5029 
     35 CA        -52.5540  -26.3458   18.5665 C.3       10 UNK         0.0280 
     36 CB        -51.8690  -26.9916   19.7924 C.3       10 UNK        -0.1976 
     37 N         -52.0144  -26.9027   17.3217 N.am      10 UNK        -0.4242 
     38 C         -52.1605  -28.1504   16.8421 C.2       10 UNK         0.5072 
     39 O         -52.8876  -28.9990   17.3641 O.2       10 UNK        -0.5224 
     40 CA        -51.3414  -28.5472   15.5913 C.3       9 UNK         0.0343 
     41 CB        -52.2359  -29.0017   14.4296 C.3       9 UNK        -0.2003 
     42 N         -50.4609  -27.4874   15.1007 N.am      9 UNK        -0.4272 
     43 C         -49.2734  -27.1596   15.6261 C.2       9 UNK         0.4988 
     44 O         -48.7351  -27.7795   16.5437 O.2       9 UNK        -0.5108 
     45 CA        -48.5811  -25.9097   15.0515 C.3       8 UNK         0.0248 
     46 CB        -47.4466  -26.3178   14.0975 C.3       8 UNK        -0.2001 
     47 N         -49.4918  -24.9748   14.3714 N.am      8 UNK        -0.4140 
     48 C         -50.4824  -24.3014   14.9822 C.2       8 UNK         0.5028 
     49 O         -50.7586  -24.4519   16.1731 O.2       8 UNK        -0.5428 
     50 CA        -51.3144  -23.3014   14.1575 C.3       7 UNK         0.0264 
     51 CB        -50.9361  -21.8586   14.5310 C.3       7 UNK        -0.1988 
     52 N         -51.1759  -23.4667   12.7103 N.am      7 UNK        -0.4454 
     53 C         -51.7959  -24.4054   11.9820 C.2       7 UNK         0.5027 
     54 O         -52.5996  -25.2152   12.4495 O.2       7 UNK        -0.5083 
     55 CA        -51.4713  -24.4550   10.4734 C.3       6 UNK         0.0844 
     56 C56       -52.6067  -23.7839    9.6598 C.3       14 UNK        -0.0967 
     57 S57       -52.3606  -23.9016    7.8526 S.3       14 UNK        -0.2604 
     58 C58       -53.4892  -25.2515    7.3929 C.3       14 UNK         0.0134 
     59 N         -50.1512  -23.9279   10.1045 N.am      6 UNK        -0.4116 
     60 C         -48.9684  -24.3588   10.5606 C.2       5 UNK         0.5034 
     61 O         -48.8474  -25.1515   11.4948 O.2       5 UNK        -0.5045 
     62 CA        -47.7230  -23.8322    9.8240 C.3       5 UNK         0.0224 
     63 CB        -46.4088  -24.2940   10.4799 C.3       5 UNK        -0.1978 
     64 N         -47.7365  -24.2685    8.4256 N.am      5 UNK        -0.4737 
     65 C         -48.4514  -23.6938    7.4491 C.2       4 UNK         0.5027 
     66 O         -49.1244  -22.6756    7.6212 O.2       4 UNK        -0.5211 
     67 CA        -48.4137  -24.3836    6.0724 C.3       4 UNK         0.0297 
     68 CB        -49.0996  -23.5642    4.9595 C.3       4 UNK        -0.1993 
     69 N         -47.0544  -24.7746    5.6875 N.am      4 UNK        -0.4486 
     70 C         -45.9921  -23.9717    5.5116 C.2       3 UNK         0.4961 
     71 O         -46.0430  -22.7419    5.5515 O.2       3 UNK        -0.5105 
     72 CA        -44.6254  -24.6431    5.2751 C.3       3 UNK         0.0299 
     73 CB        -43.7312  -24.4769    6.5156 C.3       3 UNK        -0.1972 
     74 N         -44.7300  -26.0680    4.9542 N.am      3 UNK        -0.4305 
     75 C         -45.0549  -26.5599    3.7504 C.2       2 UNK         0.5006 
     76 O         -45.2286  -25.8638    2.7495 O.2       2 UNK        -0.5106 
     77 CA        -45.2294  -28.0869    3.6443 C.3       2 UNK         0.0296 
     78 CB        -43.9399  -28.7393    3.1194 C.3       2 UNK        -0.2002 
     79 N         -45.6191  -28.7294    4.9056 N.am      2 UNK        -0.4032 
     80 C         -46.7893  -28.5362    5.5335 C.2       1 UNK         0.5000 
     81 O         -47.6621  -27.7711    5.1178 O.2       1 UNK        -0.5238 
     82 H82       -43.9114  -26.7090    9.1087 H         1 UNK         0.0889 
     83 H83       -43.9134  -28.4523    9.3699 H         1 UNK         0.0889 
     84 H84       -44.9602  -27.4144   10.3408 H         1 UNK         0.0889 
     85 H85       -45.3481  -29.6897    8.1665 H         1 UNK         0.3028 
     86 H86       -46.7780  -30.3340    6.6576 H         1 UNK         0.0864 
     87 H87       -48.7943  -28.1586    7.3943 H         1 UNK         0.0720 
     88 H88       -48.3485  -29.3609    8.5611 H         1 UNK         0.0720 
     89 H89       -51.5311  -30.0003    5.5301 H         1 UNK         0.0814 
     90 H90       -50.4031  -28.6729    5.3844 H         1 UNK         0.0814 
     91 H91       -51.9732  -26.9106    5.8526 H         1 UNK         0.1469 
     92 H92       -53.7105  -26.5877    9.7498 H         1 UNK         0.1381 
     93 H93       -51.5658  -30.1289    8.6661 H         1 UNK         0.1206 
     94 H94       -52.0981  -29.7156   10.9735 H         1 UNK         0.0813 
     95 H95       -52.7423  -28.1905   11.4884 H         1 UNK         0.0813 
     96 H96       -55.5031  -27.7352   10.2491 H         1 UNK         0.0638 
     97 H97       -56.6668  -28.7864   10.9773 H         1 UNK         0.0638 
     98 H98       -54.4844  -27.4151   12.6166 H         1 UNK         0.0568 
     99 H99       -54.5345  -25.2180   12.3941 H         1 UNK         0.3450 
    100 H100      -56.0115  -24.2818   12.2905 H         1 UNK         0.3450 
    101 H101      -56.5563  -29.2711   13.3287 H         1 UNK         0.2987 
    102 H102      -57.3847  -29.1998   15.7746 H         1 UNK         0.0766 
    103 H103      -55.9965  -30.9931   14.6591 H         1 UNK         0.0798 
    104 H104      -56.2513  -31.3255   16.3602 H         1 UNK         0.0798 
    105 H105      -54.7031  -30.7008   15.8159 H         1 UNK         0.0798 
    106 H106      -54.9237  -28.8019   17.4341 H         1 UNK         0.3198 
    107 H107      -56.5696  -26.7065   19.6678 H         1 UNK         0.0843 
    108 H108      -55.8680  -29.6137   20.3593 H         1 UNK         0.0831 
    109 H109      -57.4043  -28.8257   20.6882 H         1 UNK         0.0831 
    110 H110      -55.9513  -28.2715   21.5022 H         1 UNK         0.0831 
    111 H111      -54.0293  -28.1160   19.6715 H         1 UNK         0.3133 
    112 H112      -52.2789  -25.2899   18.5651 H         1 UNK         0.0566 
    113 H113      -50.7972  -26.7922   19.7863 H         1 UNK         0.0814 
    114 H114      -51.9976  -28.0739   19.8238 H         1 UNK         0.0814 
    115 H115      -52.2639  -26.5835   20.7239 H         1 UNK         0.0814 
    116 H116      -51.4497  -26.2492   16.7874 H         1 UNK         0.3091 
    117 H117      -50.7251  -29.3992   15.8854 H         1 UNK         0.0702 
    118 H118      -51.6410  -29.3972   13.6066 H         1 UNK         0.0785 
    119 H119      -52.8317  -28.1761   14.0446 H         1 UNK         0.0785 
    120 H120      -52.9182  -29.7923   14.7372 H         1 UNK         0.0785 
    121 H121      -50.8204  -26.9131   14.3514 H         1 UNK         0.2998 
    122 H122      -48.1369  -25.3744   15.8932 H         1 UNK         0.0697 
    123 H123      -47.8211  -26.8887   13.2469 H         1 UNK         0.0825 
    124 H124      -46.7123  -26.9418   14.6086 H         1 UNK         0.0825 
    125 H125      -46.9176  -25.4470   13.7101 H         1 UNK         0.0825 
    126 H126      -49.3403  -24.8473   13.3745 H         1 UNK         0.3029 
    127 H127      -52.3619  -23.4582   14.4259 H         1 UNK         0.0897 
    128 H128      -49.8968  -21.6359   14.2859 H         1 UNK         0.0792 
    129 H129      -51.0621  -21.6864   15.6011 H         1 UNK         0.0792 
    130 H130      -51.5671  -21.1357   14.0134 H         1 UNK         0.0792 
    131 H131      -50.5389  -22.8409   12.2387 H         1 UNK         0.3086 
    132 H132      -51.4402  -25.5128   10.2133 H         1 UNK         0.0583 
    133 H133      -53.5780  -24.2093    9.9189 H         1 UNK         0.1020 
    134 H134      -52.6746  -22.7243    9.9145 H         1 UNK         0.1020 
    135 H135      -54.4617  -25.1029    7.8650 H         1 UNK         0.0694 
    136 H136      -53.6677  -25.2024    6.3177 H         1 UNK         0.0694 
    137 H137      -50.1357  -23.3102    9.2988 H         1 UNK         0.2989 
    138 H138      -47.7509  -22.7409    9.8616 H         1 UNK         0.1055 
    139 H139      -46.3372  -25.3811   10.5126 H         1 UNK         0.0806 
    140 H140      -45.5402  -23.9172    9.9395 H         1 UNK         0.0806 
    141 H141      -46.3367  -23.9322   11.5064 H         1 UNK         0.0806 
    142 H142      -47.2236  -25.1247    8.2142 H         1 UNK         0.3061 
    143 H143      -48.9737  -25.3135    6.1864 H         1 UNK         0.0734 
    144 H144      -48.6277  -22.5913    4.8206 H         1 UNK         0.0832 
    145 H145      -49.0735  -24.0913    4.0059 H         1 UNK         0.0832 
    146 H146      -50.1478  -23.3841    5.2022 H         1 UNK         0.0832 
    147 H147      -46.9018  -25.7762    5.6494 H         1 UNK         0.3156 
    148 H148      -44.1455  -24.1301    4.4389 H         1 UNK         0.0589 
    149 H149      -42.7519  -24.9324    6.3674 H         1 UNK         0.0808 
    150 H150      -43.5658  -23.4215    6.7366 H         1 UNK         0.0808 
    151 H151      -44.1832  -24.9239    7.4013 H         1 UNK         0.0808 
    152 H152      -44.6142  -26.7137    5.7211 H         1 UNK         0.3098 
    153 H153      -46.0247  -28.2714    2.9188 H         1 UNK         0.0720 
    154 H154      -43.6406  -28.3003    2.1664 H         1 UNK         0.0791 
    155 H155      -44.0746  -29.8082    2.9521 H         1 UNK         0.0791 
    156 H156      -43.1084  -28.6086    3.8132 H         1 UNK         0.0791 
    157 H157      -44.9467  -29.3588    5.3205 H         1 UNK         0.3028 
@<TRIPOS>BOND
     1    1    2 1    
     2    1   82 1    
     3    1   83 1    
     4    1   84 1    
     5    2    3 2    
     6    2    4 am   BACKBONE|DICT|INTERRES
     7    4    5 1    
     8    4   85 1    
     9    5    6 1    
    10    5   80 1    
    11    5   86 1    
    12    6    7 1    
    13    6   87 1    
    14    6   88 1    
    15    7    8 1    
    16    8    9 1    
    17    8   89 1    
    18    8   90 1    
    19    9   10 ar   
    20    9   14 ar   
    21   10   11 ar   
    22   10   91 1    
    23   11   12 ar   
    24   11   58 1    
    25   12   13 ar   
    26   12   92 1    
    27   13   14 ar   
    28   13   15 1    
    29   14   93 1    
    30   15   16 1    
    31   15   94 1    
    32   15   95 1    
    33   16   17 1    
    34   17   18 1    
    35   17   96 1    
    36   17   97 1    
    37   18   19 1    
    38   18   22 1    
    39   18   98 1    
    40   19   20 am   BACKBONE|DICT|INTERRES
    41   19   21 2    
    42   20   99 1    
    43   20  100 1    
    44   22   23 am   BACKBONE|DICT|INTERRES
    45   22  101 1    
    46   23   24 2    
    47   23   25 1    
    48   25   26 1    
    49   25   27 1    
    50   25  102 1    
    51   26  103 1    
    52   26  104 1    
    53   26  105 1    
    54   27   28 am   BACKBONE|DICT|INTERRES
    55   27  106 1    
    56   28   29 2    
    57   28   30 1    
    58   30   31 1    
    59   30   32 1    
    60   30  107 1    
    61   31  108 1    
    62   31  109 1    
    63   31  110 1    
    64   32   33 am   BACKBONE|DICT|INTERRES
    65   32  111 1    
    66   33   34 2    
    67   33   35 1    
    68   35   36 1    
    69   35   37 1    
    70   35  112 1    
    71   36  113 1    
    72   36  114 1    
    73   36  115 1    
    74   37   38 am   BACKBONE|DICT|INTERRES
    75   37  116 1    
    76   38   39 2    
    77   38   40 1    
    78   40   41 1    
    79   40   42 1    
    80   40  117 1    
    81   41  118 1    
    82   41  119 1    
    83   41  120 1    
    84   42   43 am   BACKBONE|DICT|INTERRES
    85   42  121 1    
    86   43   44 2    
    87   43   45 1    
    88   45   46 1    
    89   45   47 1    
    90   45  122 1    
    91   46  123 1    
    92   46  124 1    
    93   46  125 1    
    94   47   48 am   BACKBONE|DICT|INTERRES
    95   47  126 1    
    96   48   49 2    
    97   48   50 1    
    98   50   51 1    
    99   50   52 1    
   100   50  127 1    
   101   51  128 1    
   102   51  129 1    
   103   51  130 1    
   104   52   53 am   BACKBONE|DICT|INTERRES
   105   52  131 1    
   106   53   54 2    
   107   53   55 1    
   108   55   56 1    
   109   55   59 1    
   110   55  132 1    
   111   56   57 1    
   112   56  133 1    
   113   56  134 1    
   114   57   58 1    
   115   58  135 1    
   116   58  136 1    
   117   59   60 am   BACKBONE|DICT|INTERRES
   118   59  137 1    
   119   60   61 2    
   120   60   62 1    
   121   62   63 1    
   122   62   64 1    
   123   62  138 1    
   124   63  139 1    
   125   63  140 1    
   126   63  141 1    
   127   64   65 am   BACKBONE|DICT|INTERRES
   128   64  142 1    
   129   65   66 2    
   130   65   67 1    
   131   67   68 1    
   132   67   69 1    
   133   67  143 1    
   134   68  144 1    
   135   68  145 1    
   136   68  146 1    
   137   69   70 am   BACKBONE|DICT|INTERRES
   138   69  147 1    
   139   70   71 2    
   140   70   72 1    
   141   72   73 1    
   142   72   74 1    
   143   72  148 1    
   144   73  149 1    
   145   73  150 1    
   146   73  151 1    
   147   74   75 am   BACKBONE|DICT|INTERRES
   148   74  152 1    
   149   75   76 2    
   150   75   77 1    
   151   77   78 1    
   152   77   79 1    
   153   77  153 1    
   154   78  154 1    
   155   78  155 1    
   156   78  156 1    
   157   79   80 am   BACKBONE|DICT|INTERRES
   158   79  157 1    
   159   80   81 2    
@<TRIPOS>SUBSTRUCTURE
     1 UNK         1 GROUP             0       ****    0 ROOT    
