@<TRIPOS>MOLECULE
3R207
157   159    1
SMALL
USER_CHARGES


@<TRIPOS>ATOM
      1 CA        -55.3458  -26.9191    6.8391 C.3       0 UNK        -0.1975 
      2 C         -53.9962  -27.0783    6.1547 C.2       0 UNK         0.4852 
      3 O         -53.8876  -26.8277    4.9544 O.2       0 UNK        -0.5216 
      4 N         -52.9712  -27.4917    6.9151 N.am      1 UNK        -0.4461 
      5 CA        -51.5943  -27.7348    6.4580 C.3       1 UNK         0.0864 
      6 C6        -51.4967  -28.9099    5.4439 C.3       14 UNK        -0.0898 
      7 S7        -49.9649  -29.8862    5.6371 S.3       14 UNK        -0.2598 
      8 C8        -50.5358  -31.3037    6.6310 C.3       14 UNK         0.0286 
      9 C9        -50.6111  -30.9670    8.1142 C.ar      14 UNK        -0.0844 
     10 C10       -49.5120  -31.2087    8.9442 C.ar      14 UNK        -0.0881 
     11 C11       -49.5781  -30.9290   10.3123 C.ar      14 UNK        -0.0643 
     12 C12       -50.7499  -30.3808   10.8458 C.ar      14 UNK        -0.0930 
     13 C13       -51.8557  -30.1305   10.0256 C.ar      14 UNK        -0.0827 
     14 C14       -51.7836  -30.4397    8.6636 C.ar      14 UNK        -0.1249 
     15 C15       -53.1263  -29.5213   10.6026 C.3       14 UNK         0.0141 
     16 S16       -54.0843  -30.7385   11.5586 S.3       14 UNK        -0.2313 
     17 C17       -55.8059  -30.2629   11.1649 C.3       14 UNK        -0.0915 
     18 CA        -56.4496  -29.2641   12.1716 C.3       13 UNK         0.0968 
     19 C         -56.7655  -29.9073   13.5510 C.2       13 UNK         0.5732 
     20 N         -56.3997  -29.3250   14.6836 N.am      13 UNK        -0.7310 
     21 O         -57.3984  -30.9598   13.6005 O.2       13 UNK        -0.5035 
     22 N         -55.7478  -27.9667   12.1965 N.am      13 UNK        -0.4233 
     23 C         -55.8753  -27.0531   11.2221 C.2       13 UNK         0.4989 
     24 O         -56.6866  -27.1601   10.3004 O.2       13 UNK        -0.4996 
     25 CA        -54.8991  -25.8590   11.2139 C.3       12 UNK         0.0216 
     26 CB        -55.3913  -24.6770   10.3504 C.3       12 UNK        -0.1964 
     27 N         -54.4820  -25.3979   12.5386 N.am      12 UNK        -0.4276 
     28 C         -55.2409  -24.8593   13.5028 C.2       12 UNK         0.5020 
     29 O         -56.4589  -24.6937   13.4109 O.2       12 UNK        -0.5489 
     30 CA        -54.4947  -24.4419   14.7891 C.3       11 UNK         0.0294 
     31 CB        -55.4449  -24.1736   15.9755 C.3       11 UNK        -0.2019 
     32 N         -53.4385  -25.3881   15.1759 N.am      11 UNK        -0.4493 
     33 C         -53.5926  -26.6974   15.4268 C.2       11 UNK         0.4932 
     34 O         -54.6826  -27.2647   15.3711 O.2       11 UNK        -0.5029 
     35 CA        -52.3458  -27.5453   15.7441 C.3       10 UNK         0.0280 
     36 CB        -52.2313  -28.7142   14.7479 C.3       10 UNK        -0.1976 
     37 N         -51.0924  -26.7879   15.7327 N.am      10 UNK        -0.4242 
     38 C         -50.6502  -25.9953   16.7181 C.2       10 UNK         0.5072 
     39 O         -51.2306  -25.8504   17.7945 O.2       10 UNK        -0.5224 
     40 CA        -49.3645  -25.1930   16.4376 C.3       9 UNK         0.0343 
     41 CB        -48.1157  -26.0374   16.7357 C.3       9 UNK        -0.2003 
     42 N         -49.2949  -24.6715   15.0672 N.am      9 UNK        -0.4272 
     43 C         -50.1692  -23.7969   14.5440 C.2       9 UNK         0.4988 
     44 O         -51.1096  -23.3089   15.1715 O.2       9 UNK        -0.5108 
     45 CA        -50.0086  -23.4524   13.0542 C.3       8 UNK         0.0248 
     46 CB        -48.8878  -22.4247   12.8462 C.3       8 UNK        -0.2001 
     47 N         -49.7577  -24.6381   12.2337 N.am      8 UNK        -0.4140 
     48 C         -50.6198  -25.6551   12.1027 C.2       8 UNK         0.5028 
     49 O         -51.7521  -25.6643   12.5831 O.2       8 UNK        -0.5428 
     50 CA        -50.1217  -26.9031   11.3689 C.3       7 UNK         0.0264 
     51 CB        -50.2324  -26.7546    9.8480 C.3       7 UNK        -0.1988 
     52 N         -48.7595  -27.2711   11.7553 N.am      7 UNK        -0.4454 
     53 C         -48.4512  -27.7763   12.9586 C.2       7 UNK         0.5027 
     54 O         -49.2713  -27.9231   13.8628 O.2       7 UNK        -0.5083 
     55 CA        -46.9866  -28.1830   13.2119 C.3       6 UNK         0.0844 
     56 C56       -46.7076  -29.6587   12.8282 C.3       14 UNK        -0.0967 
     57 S57       -47.0349  -30.0735   11.0728 S.3       14 UNK        -0.2604 
     58 C58       -48.4039  -31.2725   11.2182 C.3       14 UNK         0.0134 
     59 N         -45.9955  -27.2642   12.6473 N.am      6 UNK        -0.4116 
     60 C         -45.8672  -25.9688   12.9702 C.2       5 UNK         0.5034 
     61 O         -46.6855  -25.3511   13.6552 O.2       5 UNK        -0.5045 
     62 CA        -44.5967  -25.2501   12.4762 C.3       5 UNK         0.0224 
     63 CB        -43.5012  -26.1972   11.9414 C.3       5 UNK        -0.1978 
     64 N         -44.9399  -24.2929   11.4312 N.am      5 UNK        -0.4737 
     65 C         -45.2892  -23.0160   11.6274 C.2       4 UNK         0.5027 
     66 O         -45.2458  -22.4527   12.7211 O.2       4 UNK        -0.5211 
     67 CA        -45.7510  -22.2198   10.3899 C.3       4 UNK         0.0297 
     68 CB        -44.7033  -21.1596   10.0111 C.3       4 UNK        -0.1993 
     69 N         -46.0396  -23.0462    9.2102 N.am      4 UNK        -0.4486 
     70 C         -47.0535  -23.9146    9.1070 C.2       3 UNK         0.4961 
     71 O         -47.8525  -24.1537   10.0147 O.2       3 UNK        -0.5105 
     72 CA        -47.1440  -24.7005    7.7897 C.3       3 UNK         0.0299 
     73 CB        -46.6202  -26.1332    7.9880 C.3       3 UNK        -0.1972 
     74 N         -48.5184  -24.7591    7.2965 N.am      3 UNK        -0.4305 
     75 C         -49.2170  -23.7208    6.8188 C.2       2 UNK         0.5006 
     76 O         -48.7379  -22.5944    6.6768 O.2       2 UNK        -0.5106 
     77 CA        -50.7017  -23.9490    6.4581 C.3       2 UNK         0.0296 
     78 CB        -51.0264  -23.4507    5.0338 C.3       2 UNK        -0.2002 
     79 N         -51.2059  -25.3171    6.6659 N.am      2 UNK        -0.4032 
     80 C         -50.8712  -26.4406    6.0077 C.2       1 UNK         0.5000 
     81 O         -50.0211  -26.4792    5.1171 O.2       1 UNK        -0.5238 
     82 H82       -55.3186  -27.2417    7.8795 H         1 UNK         0.0889 
     83 H83       -56.0998  -27.5132    6.3235 H         1 UNK         0.0889 
     84 H84       -55.6594  -25.8759    6.8140 H         1 UNK         0.0889 
     85 H85       -53.1400  -27.6844    7.8912 H         1 UNK         0.3028 
     86 H86       -51.0650  -28.0439    7.3584 H         1 UNK         0.0864 
     87 H87       -51.5657  -28.5518    4.4150 H         1 UNK         0.0720 
     88 H88       -52.3441  -29.5859    5.5643 H         1 UNK         0.0720 
     89 H89       -49.8430  -32.1328    6.4789 H         1 UNK         0.0814 
     90 H90       -51.5024  -31.6562    6.2683 H         1 UNK         0.0814 
     91 H91       -48.6060  -31.6292    8.5294 H         1 UNK         0.1469 
     92 H92       -50.8084  -30.1624   11.9036 H         1 UNK         0.1381 
     93 H93       -52.6389  -30.2655    8.0256 H         1 UNK         0.1206 
     94 H94       -53.7368  -29.1111    9.7981 H         1 UNK         0.0813 
     95 H95       -52.8783  -28.6814   11.2515 H         1 UNK         0.0813 
     96 H96       -56.3968  -31.1791   11.1152 H         1 UNK         0.0638 
     97 H97       -55.8480  -29.8555   10.1544 H         1 UNK         0.0638 
     98 H98       -57.4522  -29.0581   11.7918 H         1 UNK         0.0568 
     99 H99       -56.6465  -29.7805   15.5469 H         1 UNK         0.3450 
    100 H100      -55.8617  -28.4640   14.7282 H         1 UNK         0.3450 
    101 H101      -55.0969  -27.8151   12.9534 H         1 UNK         0.2987 
    102 H102      -53.9898  -26.2367   10.7445 H         1 UNK         0.0766 
    103 H103      -54.6616  -23.8674   10.3340 H         1 UNK         0.0798 
    104 H104      -56.3336  -24.2720   10.7205 H         1 UNK         0.0798 
    105 H105      -55.5543  -24.9828    9.3166 H         1 UNK         0.0798 
    106 H106      -53.4781  -25.4846   12.7186 H         1 UNK         0.3198 
    107 H107      -53.9887  -23.5045   14.5527 H         1 UNK         0.0843 
    108 H108      -56.0266  -25.0585   16.2361 H         1 UNK         0.0831 
    109 H109      -56.1525  -23.3785   15.7377 H         1 UNK         0.0831 
    110 H110      -54.8933  -23.8608   16.8621 H         1 UNK         0.0831 
    111 H111      -52.5013  -25.0033   15.2015 H         1 UNK         0.3133 
    112 H112      -52.4878  -27.9646   16.7420 H         1 UNK         0.0566 
    113 H113      -52.1057  -28.3576   13.7253 H         1 UNK         0.0814 
    114 H114      -51.3820  -29.3552   14.9845 H         1 UNK         0.0814 
    115 H115      -53.1221  -29.3437   14.7670 H         1 UNK         0.0814 
    116 H116      -50.5045  -26.9131   14.9121 H         1 UNK         0.3091 
    117 H117      -49.3600  -24.3345   17.1125 H         1 UNK         0.0702 
    118 H118      -47.2023  -25.4595   16.5925 H         1 UNK         0.0785 
    119 H119      -48.0592  -26.9161   16.0937 H         1 UNK         0.0785 
    120 H120      -48.1202  -26.3882   17.7685 H         1 UNK         0.0785 
    121 H121      -48.5279  -25.0007   14.4882 H         1 UNK         0.2998 
    122 H122      -50.9454  -23.0070   12.7125 H         1 UNK         0.0697 
    123 H123      -47.9196  -22.8218   13.1517 H         1 UNK         0.0825 
    124 H124      -49.0703  -21.5219   13.4304 H         1 UNK         0.0825 
    125 H125      -48.8155  -22.1266   11.8004 H         1 UNK         0.0825 
    126 H126      -48.8713  -24.6800   11.7410 H         1 UNK         0.3029 
    127 H127      -50.7751  -27.7223   11.6674 H         1 UNK         0.0897 
    128 H128      -49.8661  -27.6478    9.3415 H         1 UNK         0.0792 
    129 H129      -49.6661  -25.8997    9.4873 H         1 UNK         0.0792 
    130 H130      -51.2715  -26.6078    9.5531 H         1 UNK         0.0792 
    131 H131      -48.0303  -27.1774   11.0642 H         1 UNK         0.3086 
    132 H132      -46.8474  -28.1191   14.2932 H         1 UNK         0.0583 
    133 H133      -45.6642  -29.8995   13.0382 H         1 UNK         0.1020 
    134 H134      -47.2762  -30.3160   13.4873 H         1 UNK         0.1020 
    135 H135      -48.0263  -32.2634   10.9616 H         1 UNK         0.0694 
    136 H136      -48.7533  -31.3479   12.2481 H         1 UNK         0.0694 
    137 H137      -45.2924  -27.6829   12.0567 H         1 UNK         0.2989 
    138 H138      -44.1844  -24.7197   13.3378 H         1 UNK         0.1055 
    139 H139      -43.2178  -26.9389   12.6900 H         1 UNK         0.0806 
    140 H140      -42.5968  -25.6405   11.6947 H         1 UNK         0.0806 
    141 H141      -43.8111  -26.7280   11.0403 H         1 UNK         0.0806 
    142 H142      -45.0265  -24.6557   10.4940 H         1 UNK         0.3061 
    143 H143      -46.6718  -21.7035   10.6677 H         1 UNK         0.0734 
    144 H144      -45.0509  -20.5311    9.1909 H         1 UNK         0.0832 
    145 H145      -44.4933  -20.4990   10.8537 H         1 UNK         0.0832 
    146 H146      -43.7582  -21.6144    9.7118 H         1 UNK         0.0832 
    147 H147      -45.4243  -22.9262    8.4177 H         1 UNK         0.3156 
    148 H148      -46.5322  -24.2077    7.0311 H         1 UNK         0.0589 
    149 H149      -47.1986  -26.6787    8.7348 H         1 UNK         0.0808 
    150 H150      -46.6573  -26.7008    7.0578 H         1 UNK         0.0808 
    151 H151      -45.5813  -26.1287    8.3200 H         1 UNK         0.0808 
    152 H152      -48.9827  -25.6507    7.3591 H         1 UNK         0.3098 
    153 H153      -51.2655  -23.3252    7.1534 H         1 UNK         0.0720 
    154 H154      -52.0836  -23.5783    4.8003 H         1 UNK         0.0791 
    155 H155      -50.4492  -23.9810    4.2760 H         1 UNK         0.0791 
    156 H156      -50.7987  -22.3892    4.9280 H         1 UNK         0.0791 
    157 H157      -51.9188  -25.4003    7.3764 H         1 UNK         0.3028 
@<TRIPOS>BOND
     1    1    2 1    
     2    1   82 1    
     3    1   83 1    
     4    1   84 1    
     5    2    3 2    
     6    2    4 am   BACKBONE|DICT|INTERRES
     7    4    5 1    
     8    4   85 1    
     9    5    6 1    
    10    5   80 1    
    11    5   86 1    
    12    6    7 1    
    13    6   87 1    
    14    6   88 1    
    15    7    8 1    
    16    8    9 1    
    17    8   89 1    
    18    8   90 1    
    19    9   10 ar   
    20    9   14 ar   
    21   10   11 ar   
    22   10   91 1    
    23   11   12 ar   
    24   11   58 1    
    25   12   13 ar   
    26   12   92 1    
    27   13   14 ar   
    28   13   15 1    
    29   14   93 1    
    30   15   16 1    
    31   15   94 1    
    32   15   95 1    
    33   16   17 1    
    34   17   18 1    
    35   17   96 1    
    36   17   97 1    
    37   18   19 1    
    38   18   22 1    
    39   18   98 1    
    40   19   20 am   BACKBONE|DICT|INTERRES
    41   19   21 2    
    42   20   99 1    
    43   20  100 1    
    44   22   23 am   BACKBONE|DICT|INTERRES
    45   22  101 1    
    46   23   24 2    
    47   23   25 1    
    48   25   26 1    
    49   25   27 1    
    50   25  102 1    
    51   26  103 1    
    52   26  104 1    
    53   26  105 1    
    54   27   28 am   BACKBONE|DICT|INTERRES
    55   27  106 1    
    56   28   29 2    
    57   28   30 1    
    58   30   31 1    
    59   30   32 1    
    60   30  107 1    
    61   31  108 1    
    62   31  109 1    
    63   31  110 1    
    64   32   33 am   BACKBONE|DICT|INTERRES
    65   32  111 1    
    66   33   34 2    
    67   33   35 1    
    68   35   36 1    
    69   35   37 1    
    70   35  112 1    
    71   36  113 1    
    72   36  114 1    
    73   36  115 1    
    74   37   38 am   BACKBONE|DICT|INTERRES
    75   37  116 1    
    76   38   39 2    
    77   38   40 1    
    78   40   41 1    
    79   40   42 1    
    80   40  117 1    
    81   41  118 1    
    82   41  119 1    
    83   41  120 1    
    84   42   43 am   BACKBONE|DICT|INTERRES
    85   42  121 1    
    86   43   44 2    
    87   43   45 1    
    88   45   46 1    
    89   45   47 1    
    90   45  122 1    
    91   46  123 1    
    92   46  124 1    
    93   46  125 1    
    94   47   48 am   BACKBONE|DICT|INTERRES
    95   47  126 1    
    96   48   49 2    
    97   48   50 1    
    98   50   51 1    
    99   50   52 1    
   100   50  127 1    
   101   51  128 1    
   102   51  129 1    
   103   51  130 1    
   104   52   53 am   BACKBONE|DICT|INTERRES
   105   52  131 1    
   106   53   54 2    
   107   53   55 1    
   108   55   56 1    
   109   55   59 1    
   110   55  132 1    
   111   56   57 1    
   112   56  133 1    
   113   56  134 1    
   114   57   58 1    
   115   58  135 1    
   116   58  136 1    
   117   59   60 am   BACKBONE|DICT|INTERRES
   118   59  137 1    
   119   60   61 2    
   120   60   62 1    
   121   62   63 1    
   122   62   64 1    
   123   62  138 1    
   124   63  139 1    
   125   63  140 1    
   126   63  141 1    
   127   64   65 am   BACKBONE|DICT|INTERRES
   128   64  142 1    
   129   65   66 2    
   130   65   67 1    
   131   67   68 1    
   132   67   69 1    
   133   67  143 1    
   134   68  144 1    
   135   68  145 1    
   136   68  146 1    
   137   69   70 am   BACKBONE|DICT|INTERRES
   138   69  147 1    
   139   70   71 2    
   140   70   72 1    
   141   72   73 1    
   142   72   74 1    
   143   72  148 1    
   144   73  149 1    
   145   73  150 1    
   146   73  151 1    
   147   74   75 am   BACKBONE|DICT|INTERRES
   148   74  152 1    
   149   75   76 2    
   150   75   77 1    
   151   77   78 1    
   152   77   79 1    
   153   77  153 1    
   154   78  154 1    
   155   78  155 1    
   156   78  156 1    
   157   79   80 am   BACKBONE|DICT|INTERRES
   158   79  157 1    
   159   80   81 2    
@<TRIPOS>SUBSTRUCTURE
     1 UNK         1 GROUP             0       ****    0 ROOT    
