@<TRIPOS>MOLECULE
3R207
157   159    1
SMALL
USER_CHARGES


@<TRIPOS>ATOM
      1 CA        -51.0022  -31.6205   10.8848 C.3       0 UNK        -0.1975 
      2 C         -50.1651  -31.4280    9.6299 C.2       0 UNK         0.4852 
      3 O         -49.2382  -32.1998    9.3848 O.2       0 UNK        -0.5216 
      4 N         -50.4742  -30.3883    8.8436 N.am      1 UNK        -0.4461 
      5 CA        -49.7747  -30.0082    7.6067 C.3       1 UNK         0.0864 
      6 C6        -50.5545  -28.9198    6.8208 C.3       14 UNK        -0.0898 
      7 S7        -52.2716  -29.3907    6.4447 S.3       14 UNK        -0.2598 
      8 C8        -52.9400  -27.8006    5.8456 C.3       14 UNK         0.0286 
      9 C9        -53.2282  -26.7930    6.9568 C.ar      14 UNK        -0.0844 
     10 C10       -52.8193  -25.4612    6.8245 C.ar      14 UNK        -0.0881 
     11 C11       -53.1554  -24.5118    7.7954 C.ar      14 UNK        -0.0643 
     12 C12       -53.8830  -24.9133    8.9212 C.ar      14 UNK        -0.0930 
     13 C13       -54.3082  -26.2390    9.0708 C.ar      14 UNK        -0.0827 
     14 C14       -53.9741  -27.1695    8.0782 C.ar      14 UNK        -0.1249 
     15 C15       -55.1294  -26.6076   10.3110 C.3       14 UNK         0.0141 
     16 S16       -56.1368  -28.1275   10.1959 S.3       14 UNK        -0.2313 
     17 C17       -54.9170  -29.4471   10.5287 C.3       14 UNK        -0.0915 
     18 CA        -55.2881  -30.2912   11.7787 C.3       13 UNK         0.0968 
     19 C         -54.5267  -31.6502   11.8176 C.2       13 UNK         0.5732 
     20 N         -53.8758  -32.0375   12.9092 N.am      13 UNK        -0.7310 
     21 O         -54.5365  -32.3849   10.8331 O.2       13 UNK        -0.5035 
     22 N         -55.1688  -29.5100   13.0197 N.am      13 UNK        -0.4233 
     23 C         -55.9234  -29.7053   14.1080 C.2       13 UNK         0.4989 
     24 O         -56.8668  -30.4979   14.1507 O.2       13 UNK        -0.4996 
     25 CA        -55.5526  -28.8861   15.3603 C.3       12 UNK         0.0216 
     26 CB        -56.2732  -29.3759   16.6344 C.3       12 UNK        -0.1964 
     27 N         -54.1066  -28.7968   15.5992 N.am      12 UNK        -0.4276 
     28 C         -53.2314  -29.8031   15.7578 C.2       12 UNK         0.5020 
     29 O         -53.5444  -30.9915   15.6769 O.2       12 UNK        -0.5489 
     30 CA        -51.7520  -29.4452   16.0259 C.3       11 UNK         0.0294 
     31 CB        -50.8438  -30.0404   14.9357 C.3       11 UNK        -0.2019 
     32 N         -51.5006  -28.0038   16.1212 N.am      11 UNK        -0.4493 
     33 C         -51.8122  -27.2312   17.1720 C.2       11 UNK         0.4932 
     34 O         -52.2336  -27.6663   18.2432 O.2       11 UNK        -0.5029 
     35 CA        -51.7063  -25.7106   16.9603 C.3       10 UNK         0.0280 
     36 CB        -50.3093  -25.1915   17.3372 C.3       10 UNK        -0.1976 
     37 N         -52.0332  -25.3340   15.5798 N.am      10 UNK        -0.4242 
     38 C         -53.2707  -25.3870   15.0629 C.2       10 UNK         0.5072 
     39 O         -54.2697  -25.6720   15.7224 O.2       10 UNK        -0.5224 
     40 CA        -53.4235  -25.1497   13.5529 C.3       9 UNK         0.0343 
     41 CB        -53.6191  -23.6566   13.2498 C.3       9 UNK        -0.2003 
     42 N         -52.2919  -25.6741   12.7840 N.am      9 UNK        -0.4272 
     43 C         -52.0724  -26.9807   12.5628 C.2       9 UNK         0.4988 
     44 O         -52.8370  -27.8675   12.9404 O.2       9 UNK        -0.5108 
     45 CA        -50.7971  -27.3817   11.7940 C.3       8 UNK         0.0248 
     46 CB        -51.0890  -27.3425   10.2870 C.3       8 UNK        -0.2001 
     47 N         -49.6328  -26.5340   12.0504 N.am      8 UNK        -0.4140 
     48 C         -49.1823  -26.1059   13.2381 C.2       8 UNK         0.5028 
     49 O         -49.5778  -26.5447   14.3176 O.2       8 UNK        -0.5428 
     50 CA        -48.2177  -24.9006   13.2063 C.3       7 UNK         0.0264 
     51 CB        -46.7601  -25.3606   13.3484 C.3       7 UNK        -0.1988 
     52 N         -48.3555  -24.0869   11.9881 N.am      7 UNK        -0.4454 
     53 C         -49.4997  -23.5205   11.5714 C.2       7 UNK         0.5027 
     54 O         -50.5146  -23.4617   12.2670 O.2       7 UNK        -0.5083 
     55 CA        -49.5302  -23.0297   10.1091 C.3       6 UNK         0.0844 
     56 C56       -50.9357  -22.5761    9.6376 C.3       14 UNK        -0.0967 
     57 S57       -51.0599  -22.6381    7.8197 S.3       14 UNK        -0.2604 
     58 C58       -52.8211  -23.0382    7.5766 C.3       14 UNK         0.0134 
     59 N         -48.4680  -22.0598    9.8302 N.am      6 UNK        -0.4116 
     60 C         -48.1569  -20.9588   10.5319 C.2       5 UNK         0.5034 
     61 O         -48.8646  -20.4913   11.4254 O.2       5 UNK        -0.5045 
     62 CA        -46.8098  -20.2773   10.1953 C.3       5 UNK         0.0224 
     63 CB        -46.1511  -19.6413   11.4381 C.3       5 UNK        -0.1978 
     64 N         -45.8540  -21.1577    9.5017 N.am      5 UNK        -0.4737 
     65 C         -45.3616  -22.3310    9.9299 C.2       4 UNK         0.5027 
     66 O         -45.5870  -22.8198   11.0378 O.2       4 UNK        -0.5211 
     67 CA        -44.5699  -23.1452    8.8915 C.3       4 UNK         0.0297 
     68 CB        -43.3218  -23.7898    9.5189 C.3       4 UNK        -0.1993 
     69 N         -45.4011  -24.1947    8.2909 N.am      4 UNK        -0.4486 
     70 C         -46.5511  -24.0091    7.6249 C.2       3 UNK         0.4961 
     71 O         -47.0344  -22.9014    7.3918 O.2       3 UNK        -0.5105 
     72 CA        -47.3102  -25.2545    7.1381 C.3       3 UNK         0.0299 
     73 CB        -47.1779  -25.4054    5.6144 C.3       3 UNK        -0.1972 
     74 N         -46.9019  -26.5071    7.7777 N.am      3 UNK        -0.4305 
     75 C         -47.1731  -26.8486    9.0430 C.2       2 UNK         0.5006 
     76 O         -47.7376  -26.1103    9.8523 O.2       2 UNK        -0.5106 
     77 CA        -46.8483  -28.3014    9.4264 C.3       2 UNK         0.0296 
     78 CB        -46.5375  -28.4626   10.9246 C.3       2 UNK        -0.2002 
     79 N         -48.0044  -29.1248    9.0834 N.am      2 UNK        -0.4032 
     80 C         -48.3314  -29.5074    7.8400 C.2       1 UNK         0.5000 
     81 O         -47.5631  -29.4137    6.8803 O.2       1 UNK        -0.5238 
     82 H82       -50.3579  -31.7114   11.7589 H         1 UNK         0.0889 
     83 H83       -51.5946  -32.5313   10.8020 H         1 UNK         0.0889 
     84 H84       -51.6812  -30.7851   11.0544 H         1 UNK         0.0889 
     85 H85       -51.2899  -29.8333    9.0554 H         1 UNK         0.3028 
     86 H86       -49.7037  -30.9003    6.9807 H         1 UNK         0.0864 
     87 H87       -50.0587  -28.7060    5.8715 H         1 UNK         0.0720 
     88 H88       -50.5701  -27.9780    7.3724 H         1 UNK         0.0720 
     89 H89       -52.2528  -27.3830    5.1081 H         1 UNK         0.0814 
     90 H90       -53.8726  -27.9976    5.3155 H         1 UNK         0.0814 
     91 H91       -52.2712  -25.1491    5.9460 H         1 UNK         0.1469 
     92 H92       -54.1511  -24.1806    9.6700 H         1 UNK         0.1381 
     93 H93       -54.3022  -28.1946    8.1575 H         1 UNK         0.1206 
     94 H94       -55.8107  -25.7866   10.5393 H         1 UNK         0.0813 
     95 H95       -54.4652  -26.6940   11.1645 H         1 UNK         0.0813 
     96 H96       -54.8835  -30.0704    9.6335 H         1 UNK         0.0638 
     97 H97       -53.9194  -29.0224   10.6384 H         1 UNK         0.0638 
     98 H98       -56.3352  -30.5759   11.6601 H         1 UNK         0.0568 
     99 H99       -53.8857  -31.4880   13.7614 H         1 UNK         0.3450 
    100 H100      -53.4095  -32.9295   12.9033 H         1 UNK         0.3450 
    101 H101      -54.3761  -28.8732   13.0688 H         1 UNK         0.2987 
    102 H102      -55.8916  -27.8684   15.1617 H         1 UNK         0.0766 
    103 H103      -56.0212  -28.7554   17.4945 H         1 UNK         0.0798 
    104 H104      -57.3565  -29.3351   16.5138 H         1 UNK         0.0798 
    105 H105      -56.0100  -30.4064   16.8756 H         1 UNK         0.0798 
    106 H106      -53.7442  -27.8536   15.6500 H         1 UNK         0.3198 
    107 H107      -51.4798  -29.9021   16.9796 H         1 UNK         0.0843 
    108 H108      -49.7988  -29.7728   15.0934 H         1 UNK         0.0831 
    109 H109      -51.1330  -29.7017   13.9420 H         1 UNK         0.0831 
    110 H110      -50.9026  -31.1296   14.9323 H         1 UNK         0.0831 
    111 H111      -51.0782  -27.5572   15.3127 H         1 UNK         0.3133 
    112 H112      -52.4305  -25.2307   17.6223 H         1 UNK         0.0566 
    113 H113      -49.5226  -25.6612   16.7472 H         1 UNK         0.0814 
    114 H114      -50.0914  -25.3985   18.3857 H         1 UNK         0.0814 
    115 H115      -50.2351  -24.1129   17.1986 H         1 UNK         0.0814 
    116 H116      -51.2525  -25.1652   14.9589 H         1 UNK         0.3091 
    117 H117      -54.3268  -25.6733   13.2348 H         1 UNK         0.0702 
    118 H118      -52.7762  -23.0581   13.5969 H         1 UNK         0.0785 
    119 H119      -54.5131  -23.2743   13.7443 H         1 UNK         0.0785 
    120 H120      -53.7383  -23.4798   12.1809 H         1 UNK         0.0785 
    121 H121      -51.6110  -24.9886   12.4665 H         1 UNK         0.2998 
    122 H122      -50.5300  -28.3998   12.0787 H         1 UNK         0.0697 
    123 H123      -51.8947  -28.0254   10.0210 H         1 UNK         0.0825 
    124 H124      -50.2148  -27.6177    9.7031 H         1 UNK         0.0825 
    125 H125      -51.3919  -26.3462    9.9609 H         1 UNK         0.0825 
    126 H126      -49.1556  -26.1682   11.2314 H         1 UNK         0.3029 
    127 H127      -48.4660  -24.2661   14.0593 H         1 UNK         0.0897 
    128 H128      -46.0873  -24.5091   13.4539 H         1 UNK         0.0792 
    129 H129      -46.6298  -25.9900   14.2298 H         1 UNK         0.0792 
    130 H130      -46.4338  -25.9339   12.4812 H         1 UNK         0.0792 
    131 H131      -47.5551  -24.0748   11.3665 H         1 UNK         0.3086 
    132 H132      -49.2711  -23.9146    9.5260 H         1 UNK         0.0583 
    133 H133      -51.7114  -23.2280   10.0430 H         1 UNK         0.1020 
    134 H134      -51.1642  -21.5701    9.9932 H         1 UNK         0.1020 
    135 H135      -53.4266  -22.4025    8.2247 H         1 UNK         0.0694 
    136 H136      -53.0948  -22.7666    6.5560 H         1 UNK         0.0694 
    137 H137      -47.8493  -22.3107    9.0649 H         1 UNK         0.2989 
    138 H138      -47.0504  -19.4730    9.4982 H         1 UNK         0.1055 
    139 H139      -45.2090  -19.1559   11.1838 H         1 UNK         0.0806 
    140 H140      -45.9487  -20.3828   12.2118 H         1 UNK         0.0806 
    141 H141      -46.7959  -18.8801   11.8792 H         1 UNK         0.0806 
    142 H142      -45.6524  -20.8960    8.5451 H         1 UNK         0.3061 
    143 H143      -44.2408  -22.4761    8.0938 H         1 UNK         0.0734 
    144 H144      -42.6858  -23.0343    9.9822 H         1 UNK         0.0832 
    145 H145      -43.5836  -24.5123   10.2933 H         1 UNK         0.0832 
    146 H146      -42.7193  -24.3034    8.7696 H         1 UNK         0.0832 
    147 H147      -45.1023  -25.1459    8.4451 H         1 UNK         0.3156 
    148 H148      -48.3660  -25.0933    7.3680 H         1 UNK         0.0589 
    149 H149      -46.1447  -25.5843    5.3141 H         1 UNK         0.0808 
    150 H150      -47.7849  -26.2316    5.2432 H         1 UNK         0.0808 
    151 H151      -47.5152  -24.5034    5.1014 H         1 UNK         0.0808 
    152 H152      -46.4963  -27.2099    7.1733 H         1 UNK         0.3098 
    153 H153      -45.9763  -28.6350    8.8598 H         1 UNK         0.0720 
    154 H154      -47.3778  -28.1715   11.5546 H         1 UNK         0.0791 
    155 H155      -46.2868  -29.4960   11.1647 H         1 UNK         0.0791 
    156 H156      -45.6822  -27.8495   11.2104 H         1 UNK         0.0791 
    157 H157      -48.6926  -29.2549    9.8085 H         1 UNK         0.3028 
@<TRIPOS>BOND
     1    1    2 1    
     2    1   82 1    
     3    1   83 1    
     4    1   84 1    
     5    2    3 2    
     6    2    4 am   BACKBONE|DICT|INTERRES
     7    4    5 1    
     8    4   85 1    
     9    5    6 1    
    10    5   80 1    
    11    5   86 1    
    12    6    7 1    
    13    6   87 1    
    14    6   88 1    
    15    7    8 1    
    16    8    9 1    
    17    8   89 1    
    18    8   90 1    
    19    9   10 ar   
    20    9   14 ar   
    21   10   11 ar   
    22   10   91 1    
    23   11   12 ar   
    24   11   58 1    
    25   12   13 ar   
    26   12   92 1    
    27   13   14 ar   
    28   13   15 1    
    29   14   93 1    
    30   15   16 1    
    31   15   94 1    
    32   15   95 1    
    33   16   17 1    
    34   17   18 1    
    35   17   96 1    
    36   17   97 1    
    37   18   19 1    
    38   18   22 1    
    39   18   98 1    
    40   19   20 am   BACKBONE|DICT|INTERRES
    41   19   21 2    
    42   20   99 1    
    43   20  100 1    
    44   22   23 am   BACKBONE|DICT|INTERRES
    45   22  101 1    
    46   23   24 2    
    47   23   25 1    
    48   25   26 1    
    49   25   27 1    
    50   25  102 1    
    51   26  103 1    
    52   26  104 1    
    53   26  105 1    
    54   27   28 am   BACKBONE|DICT|INTERRES
    55   27  106 1    
    56   28   29 2    
    57   28   30 1    
    58   30   31 1    
    59   30   32 1    
    60   30  107 1    
    61   31  108 1    
    62   31  109 1    
    63   31  110 1    
    64   32   33 am   BACKBONE|DICT|INTERRES
    65   32  111 1    
    66   33   34 2    
    67   33   35 1    
    68   35   36 1    
    69   35   37 1    
    70   35  112 1    
    71   36  113 1    
    72   36  114 1    
    73   36  115 1    
    74   37   38 am   BACKBONE|DICT|INTERRES
    75   37  116 1    
    76   38   39 2    
    77   38   40 1    
    78   40   41 1    
    79   40   42 1    
    80   40  117 1    
    81   41  118 1    
    82   41  119 1    
    83   41  120 1    
    84   42   43 am   BACKBONE|DICT|INTERRES
    85   42  121 1    
    86   43   44 2    
    87   43   45 1    
    88   45   46 1    
    89   45   47 1    
    90   45  122 1    
    91   46  123 1    
    92   46  124 1    
    93   46  125 1    
    94   47   48 am   BACKBONE|DICT|INTERRES
    95   47  126 1    
    96   48   49 2    
    97   48   50 1    
    98   50   51 1    
    99   50   52 1    
   100   50  127 1    
   101   51  128 1    
   102   51  129 1    
   103   51  130 1    
   104   52   53 am   BACKBONE|DICT|INTERRES
   105   52  131 1    
   106   53   54 2    
   107   53   55 1    
   108   55   56 1    
   109   55   59 1    
   110   55  132 1    
   111   56   57 1    
   112   56  133 1    
   113   56  134 1    
   114   57   58 1    
   115   58  135 1    
   116   58  136 1    
   117   59   60 am   BACKBONE|DICT|INTERRES
   118   59  137 1    
   119   60   61 2    
   120   60   62 1    
   121   62   63 1    
   122   62   64 1    
   123   62  138 1    
   124   63  139 1    
   125   63  140 1    
   126   63  141 1    
   127   64   65 am   BACKBONE|DICT|INTERRES
   128   64  142 1    
   129   65   66 2    
   130   65   67 1    
   131   67   68 1    
   132   67   69 1    
   133   67  143 1    
   134   68  144 1    
   135   68  145 1    
   136   68  146 1    
   137   69   70 am   BACKBONE|DICT|INTERRES
   138   69  147 1    
   139   70   71 2    
   140   70   72 1    
   141   72   73 1    
   142   72   74 1    
   143   72  148 1    
   144   73  149 1    
   145   73  150 1    
   146   73  151 1    
   147   74   75 am   BACKBONE|DICT|INTERRES
   148   74  152 1    
   149   75   76 2    
   150   75   77 1    
   151   77   78 1    
   152   77   79 1    
   153   77  153 1    
   154   78  154 1    
   155   78  155 1    
   156   78  156 1    
   157   79   80 am   BACKBONE|DICT|INTERRES
   158   79  157 1    
   159   80   81 2    
@<TRIPOS>SUBSTRUCTURE
     1 UNK         1 GROUP             0       ****    0 ROOT    
