@<TRIPOS>MOLECULE
3R207
157   159    1
SMALL
USER_CHARGES


@<TRIPOS>ATOM
      1 CA        -47.0999  -30.2487   10.7599 C.3       0 UNK        -0.1975 
      2 C         -47.4831  -29.7151    9.3882 C.2       0 UNK         0.4852 
      3 O         -46.6594  -29.7347    8.4724 O.2       0 UNK        -0.5216 
      4 N         -48.7227  -29.2273    9.2388 N.am      1 UNK        -0.4461 
      5 CA        -49.2643  -28.6613    7.9989 C.3       1 UNK         0.0864 
      6 C6        -50.7819  -28.3766    8.1185 C.3       14 UNK        -0.0898 
      7 S7        -51.6125  -28.4791    6.5020 S.3       14 UNK        -0.2598 
      8 C8        -53.3546  -28.6622    7.0134 C.3       14 UNK         0.0286 
      9 C9        -53.9176  -27.3982    7.6530 C.ar      14 UNK        -0.0844 
     10 C10       -53.8058  -26.1693    6.9970 C.ar      14 UNK        -0.0881 
     11 C11       -54.3110  -24.9980    7.5710 C.ar      14 UNK        -0.0643 
     12 C12       -54.9826  -25.0784    8.7945 C.ar      14 UNK        -0.0930 
     13 C13       -55.1209  -26.3030    9.4554 C.ar      14 UNK        -0.0827 
     14 C14       -54.5777  -27.4585    8.8842 C.ar      14 UNK        -0.1249 
     15 C15       -55.8794  -26.3828   10.7722 C.3       14 UNK         0.0141 
     16 S16       -54.7457  -26.5363   12.1844 S.3       14 UNK        -0.2313 
     17 C17       -55.9016  -26.4867   13.5958 C.3       14 UNK        -0.0915 
     18 CA        -56.2617  -27.8815   14.1760 C.3       13 UNK         0.0968 
     19 C         -57.2537  -28.6581   13.2614 C.2       13 UNK         0.5732 
     20 N         -58.5238  -28.2751   13.2692 N.am      13 UNK        -0.7310 
     21 O         -56.8880  -29.5716   12.5242 O.2       13 UNK        -0.5035 
     22 N         -55.0553  -28.6372   14.5423 N.am      13 UNK        -0.4233 
     23 C         -55.0388  -29.7933   15.2182 C.2       13 UNK         0.4989 
     24 O         -56.0490  -30.3130   15.6966 O.2       13 UNK        -0.4996 
     25 CA        -53.6713  -30.4673   15.4536 C.3       12 UNK         0.0216 
     26 CB        -53.7401  -32.0033   15.3120 C.3       12 UNK        -0.1964 
     27 N         -52.5633  -29.9066   14.6667 N.am      12 UNK        -0.4276 
     28 C         -52.3732  -29.9650   13.3378 C.2       12 UNK         0.5020 
     29 O         -53.1365  -30.5439   12.5651 O.2       12 UNK        -0.5489 
     30 CA        -51.1293  -29.2589   12.7600 C.3       11 UNK         0.0294 
     31 CB        -51.5265  -28.2101   11.7065 C.3       11 UNK        -0.2019 
     32 N         -50.3188  -28.6097   13.7949 N.am      11 UNK        -0.4493 
     33 C         -49.2765  -29.1806   14.4177 C.2       11 UNK         0.4932 
     34 O         -48.8158  -30.2779   14.1047 O.2       11 UNK        -0.5029 
     35 CA        -48.6510  -28.4252   15.6088 C.3       10 UNK         0.0280 
     36 CB        -47.3626  -27.7008   15.1854 C.3       10 UNK        -0.1976 
     37 N         -49.5551  -27.4681   16.2548 N.am      10 UNK        -0.4242 
     38 C         -50.6900  -27.7889   16.8937 C.2       10 UNK         0.5072 
     39 O         -51.0774  -28.9457   17.0533 O.2       10 UNK        -0.5224 
     40 CA        -51.5795  -26.6275   17.3752 C.3       9 UNK         0.0343 
     41 CB        -51.2667  -26.2819   18.8395 C.3       9 UNK        -0.2003 
     42 N         -51.4759  -25.4152   16.5530 N.am      9 UNK        -0.4272 
     43 C         -51.7524  -25.3495   15.2433 C.2       9 UNK         0.4988 
     44 O         -52.1203  -26.3163   14.5704 O.2       9 UNK        -0.5108 
     45 CA        -51.5107  -23.9958   14.5700 C.3       8 UNK         0.0248 
     46 CB        -50.0017  -23.7647   14.3601 C.3       8 UNK        -0.2001 
     47 N         -52.2185  -23.9676   13.2929 N.am      8 UNK        -0.4140 
     48 C         -52.4645  -22.8759   12.5615 C.2       8 UNK         0.5028 
     49 O         -52.0766  -21.7435   12.8591 O.2       8 UNK        -0.5428 
     50 CA        -53.3093  -23.0706   11.2924 C.3       7 UNK         0.0264 
     51 CB        -54.4170  -22.0057   11.1892 C.3       7 UNK        -0.1988 
     52 N         -52.4931  -23.0323   10.0808 N.am      7 UNK        -0.4454 
     53 C         -51.6349  -23.9888    9.6977 C.2       7 UNK         0.5027 
     54 O         -51.4033  -24.9971   10.3665 O.2       7 UNK        -0.5083 
     55 CA        -50.9215  -23.8259    8.3361 C.3       6 UNK         0.0844 
     56 C56       -51.5078  -22.7436    7.3684 C.3       14 UNK        -0.0967 
     57 S57       -52.5590  -23.4209    6.0428 S.3       14 UNK        -0.2604 
     58 C58       -54.1754  -23.6531    6.8608 C.3       14 UNK         0.0134 
     59 N         -49.4819  -23.6912    8.5581 N.am      6 UNK        -0.4116 
     60 C         -48.8459  -22.6000    9.0084 C.2       5 UNK         0.5034 
     61 O         -49.4120  -21.5399    9.2822 O.2       5 UNK        -0.5045 
     62 CA        -47.3147  -22.7143    9.1410 C.3       5 UNK         0.0224 
     63 CB        -46.6650  -21.5020    9.8433 C.3       5 UNK        -0.1978 
     64 N         -46.9072  -23.9776    9.7629 N.am      5 UNK        -0.4737 
     65 C         -47.1730  -24.3961   11.0107 C.2       4 UNK         0.5027 
     66 O         -47.7171  -23.6998   11.8659 O.2       4 UNK        -0.5211 
     67 CA        -46.7871  -25.8437   11.3693 C.3       4 UNK         0.0297 
     68 CB        -48.0476  -26.6643   11.6857 C.3       4 UNK        -0.1993 
     69 N         -46.0569  -26.5081   10.2878 N.am      4 UNK        -0.4486 
     70 C         -44.7289  -26.4643   10.1146 C.2       3 UNK         0.4961 
     71 O         -43.9523  -25.9369   10.9107 O.2       3 UNK        -0.5105 
     72 CA        -44.1687  -27.0945    8.8257 C.3       3 UNK         0.0299 
     73 CB        -43.5442  -28.4677    9.1214 C.3       3 UNK        -0.1972 
     74 N         -45.1744  -27.2283    7.7647 N.am      3 UNK        -0.4305 
     75 C         -45.6407  -26.2018    7.0350 C.2       2 UNK         0.5006 
     76 O         -45.2597  -25.0398    7.1752 O.2       2 UNK        -0.5106 
     77 CA        -46.7595  -26.5023    6.0193 C.3       2 UNK         0.0296 
     78 CB        -46.1627  -26.9217    4.6666 C.3       2 UNK        -0.2002 
     79 N         -47.7016  -27.5261    6.4797 N.am      2 UNK        -0.4032 
     80 C         -48.4664  -27.4106    7.5740 C.2       1 UNK         0.5000 
     81 O         -48.4979  -26.3957    8.2748 O.2       1 UNK        -0.5238 
     82 H82       -47.9437  -30.2472   11.4494 H         1 UNK         0.0889 
     83 H83       -46.3060  -29.6400   11.1917 H         1 UNK         0.0889 
     84 H84       -46.7359  -31.2721   10.6750 H         1 UNK         0.0889 
     85 H85       -49.3501  -29.2263   10.0280 H         1 UNK         0.3028 
     86 H86       -49.1244  -29.4331    7.2383 H         1 UNK         0.0864 
     87 H87       -51.2493  -29.1236    8.7616 H         1 UNK         0.0720 
     88 H88       -50.9886  -27.4089    8.5821 H         1 UNK         0.0720 
     89 H89       -53.4428  -29.5153    7.6880 H         1 UNK         0.0814 
     90 H90       -53.9538  -28.9031    6.1345 H         1 UNK         0.0814 
     91 H91       -53.3104  -26.1271    6.0370 H         1 UNK         0.1469 
     92 H92       -55.4047  -24.1859    9.2323 H         1 UNK         0.1381 
     93 H93       -54.6805  -28.4045    9.3985 H         1 UNK         0.1206 
     94 H94       -56.5534  -27.2398   10.7494 H         1 UNK         0.0813 
     95 H95       -56.5056  -25.4994   10.9057 H         1 UNK         0.0813 
     96 H96       -56.7992  -25.9302   13.3207 H         1 UNK         0.0638 
     97 H97       -55.4226  -25.8921   14.3752 H         1 UNK         0.0638 
     98 H98       -56.7933  -27.7072   15.1134 H         1 UNK         0.0568 
     99 H99       -59.1819  -28.7563   12.6766 H         1 UNK         0.3450 
    100 H100      -58.8409  -27.5235   13.8612 H         1 UNK         0.3450 
    101 H101      -54.1889  -28.2844   14.1625 H         1 UNK         0.2987 
    102 H102      -53.4227  -30.2539   16.4940 H         1 UNK         0.0766 
    103 H103      -54.4434  -32.4318   16.0270 H         1 UNK         0.0798 
    104 H104      -52.7700  -32.4631   15.5005 H         1 UNK         0.0798 
    105 H105      -54.0686  -32.3050   14.3171 H         1 UNK         0.0798 
    106 H106      -51.8638  -29.4275   15.2241 H         1 UNK         0.3198 
    107 H107      -50.5432  -30.0308   12.2572 H         1 UNK         0.0843 
    108 H108      -51.9973  -27.3397   12.1592 H         1 UNK         0.0831 
    109 H109      -52.2314  -28.6136   10.9784 H         1 UNK         0.0831 
    110 H110      -50.6629  -27.8525   11.1519 H         1 UNK         0.0831 
    111 H111      -50.6657  -27.7141   14.1234 H         1 UNK         0.3133 
    112 H112      -48.3831  -29.1778   16.3534 H         1 UNK         0.0566 
    113 H113      -46.8156  -27.3318   16.0532 H         1 UNK         0.0814 
    114 H114      -47.5674  -26.8498   14.5369 H         1 UNK         0.0814 
    115 H115      -46.6920  -28.3709   14.6451 H         1 UNK         0.0814 
    116 H116      -49.3145  -26.4909   16.1781 H         1 UNK         0.3091 
    117 H117      -52.6148  -26.9707   17.3188 H         1 UNK         0.0702 
    118 H118      -51.9561  -25.5312   19.2266 H         1 UNK         0.0785 
    119 H119      -50.2517  -25.9003   18.9578 H         1 UNK         0.0785 
    120 H120      -51.3601  -27.1626   19.4768 H         1 UNK         0.0785 
    121 H121      -51.1724  -24.5759   17.0266 H         1 UNK         0.2998 
    122 H122      -51.9185  -23.2129   15.2126 H         1 UNK         0.0697 
    123 H123      -49.8005  -22.7961   13.9024 H         1 UNK         0.0825 
    124 H124      -49.5712  -24.5266   13.7121 H         1 UNK         0.0825 
    125 H125      -49.4562  -23.7887   15.3039 H         1 UNK         0.0825 
    126 H126      -52.5574  -24.8731   12.9853 H         1 UNK         0.3029 
    127 H127      -53.7909  -24.0462   11.3389 H         1 UNK         0.0897 
    128 H128      -54.0056  -20.9980   11.1170 H         1 UNK         0.0792 
    129 H129      -55.0607  -22.0312   12.0694 H         1 UNK         0.0792 
    130 H130      -55.0532  -22.1664   10.3199 H         1 UNK         0.0792 
    131 H131      -52.5704  -22.1990    9.5189 H         1 UNK         0.3086 
    132 H132      -51.0197  -24.7969    7.8474 H         1 UNK         0.0583 
    133 H133      -52.0155  -21.9188    7.8668 H         1 UNK         0.1020 
    134 H134      -50.6898  -22.2555    6.8363 H         1 UNK         0.1020 
    135 H135      -54.3529  -22.8268    7.5507 H         1 UNK         0.0694 
    136 H136      -54.9559  -23.5927    6.1014 H         1 UNK         0.0694 
    137 H137      -48.9564  -24.5551    8.4453 H         1 UNK         0.2989 
    138 H138      -46.9283  -22.7423    8.1205 H         1 UNK         0.1055 
    139 H139      -47.0549  -21.3563   10.8511 H         1 UNK         0.0806 
    140 H140      -46.8568  -20.5830    9.2882 H         1 UNK         0.0806 
    141 H141      -45.5835  -21.6173    9.9144 H         1 UNK         0.0806 
    142 H142      -46.4417  -24.6280    9.1433 H         1 UNK         0.3061 
    143 H143      -46.1651  -25.8087   12.2662 H         1 UNK         0.0734 
    144 H144      -48.7171  -26.7080   10.8282 H         1 UNK         0.0832 
    145 H145      -47.8008  -27.6821   11.9834 H         1 UNK         0.0832 
    146 H146      -48.6155  -26.2196   12.5013 H         1 UNK         0.0832 
    147 H147      -46.6241  -26.9182    9.5582 H         1 UNK         0.3156 
    148 H148      -43.3751  -26.4387    8.4607 H         1 UNK         0.0589 
    149 H149      -44.2736  -29.1691    9.5263 H         1 UNK         0.0808 
    150 H150      -42.7406  -28.3791    9.8538 H         1 UNK         0.0808 
    151 H151      -43.1145  -28.9111    8.2231 H         1 UNK         0.0808 
    152 H152      -45.5799  -28.1511    7.6404 H         1 UNK         0.3098 
    153 H153      -47.3238  -25.5789    5.8711 H         1 UNK         0.0720 
    154 H154      -46.9397  -27.0509    3.9128 H         1 UNK         0.0791 
    155 H155      -45.6070  -27.8573    4.7413 H         1 UNK         0.0791 
    156 H156      -45.4742  -26.1626    4.2922 H         1 UNK         0.0791 
    157 H157      -47.7059  -28.3999    5.9730 H         1 UNK         0.3028 
@<TRIPOS>BOND
     1    1    2 1    
     2    1   82 1    
     3    1   83 1    
     4    1   84 1    
     5    2    3 2    
     6    2    4 am   BACKBONE|DICT|INTERRES
     7    4    5 1    
     8    4   85 1    
     9    5    6 1    
    10    5   80 1    
    11    5   86 1    
    12    6    7 1    
    13    6   87 1    
    14    6   88 1    
    15    7    8 1    
    16    8    9 1    
    17    8   89 1    
    18    8   90 1    
    19    9   10 ar   
    20    9   14 ar   
    21   10   11 ar   
    22   10   91 1    
    23   11   12 ar   
    24   11   58 1    
    25   12   13 ar   
    26   12   92 1    
    27   13   14 ar   
    28   13   15 1    
    29   14   93 1    
    30   15   16 1    
    31   15   94 1    
    32   15   95 1    
    33   16   17 1    
    34   17   18 1    
    35   17   96 1    
    36   17   97 1    
    37   18   19 1    
    38   18   22 1    
    39   18   98 1    
    40   19   20 am   BACKBONE|DICT|INTERRES
    41   19   21 2    
    42   20   99 1    
    43   20  100 1    
    44   22   23 am   BACKBONE|DICT|INTERRES
    45   22  101 1    
    46   23   24 2    
    47   23   25 1    
    48   25   26 1    
    49   25   27 1    
    50   25  102 1    
    51   26  103 1    
    52   26  104 1    
    53   26  105 1    
    54   27   28 am   BACKBONE|DICT|INTERRES
    55   27  106 1    
    56   28   29 2    
    57   28   30 1    
    58   30   31 1    
    59   30   32 1    
    60   30  107 1    
    61   31  108 1    
    62   31  109 1    
    63   31  110 1    
    64   32   33 am   BACKBONE|DICT|INTERRES
    65   32  111 1    
    66   33   34 2    
    67   33   35 1    
    68   35   36 1    
    69   35   37 1    
    70   35  112 1    
    71   36  113 1    
    72   36  114 1    
    73   36  115 1    
    74   37   38 am   BACKBONE|DICT|INTERRES
    75   37  116 1    
    76   38   39 2    
    77   38   40 1    
    78   40   41 1    
    79   40   42 1    
    80   40  117 1    
    81   41  118 1    
    82   41  119 1    
    83   41  120 1    
    84   42   43 am   BACKBONE|DICT|INTERRES
    85   42  121 1    
    86   43   44 2    
    87   43   45 1    
    88   45   46 1    
    89   45   47 1    
    90   45  122 1    
    91   46  123 1    
    92   46  124 1    
    93   46  125 1    
    94   47   48 am   BACKBONE|DICT|INTERRES
    95   47  126 1    
    96   48   49 2    
    97   48   50 1    
    98   50   51 1    
    99   50   52 1    
   100   50  127 1    
   101   51  128 1    
   102   51  129 1    
   103   51  130 1    
   104   52   53 am   BACKBONE|DICT|INTERRES
   105   52  131 1    
   106   53   54 2    
   107   53   55 1    
   108   55   56 1    
   109   55   59 1    
   110   55  132 1    
   111   56   57 1    
   112   56  133 1    
   113   56  134 1    
   114   57   58 1    
   115   58  135 1    
   116   58  136 1    
   117   59   60 am   BACKBONE|DICT|INTERRES
   118   59  137 1    
   119   60   61 2    
   120   60   62 1    
   121   62   63 1    
   122   62   64 1    
   123   62  138 1    
   124   63  139 1    
   125   63  140 1    
   126   63  141 1    
   127   64   65 am   BACKBONE|DICT|INTERRES
   128   64  142 1    
   129   65   66 2    
   130   65   67 1    
   131   67   68 1    
   132   67   69 1    
   133   67  143 1    
   134   68  144 1    
   135   68  145 1    
   136   68  146 1    
   137   69   70 am   BACKBONE|DICT|INTERRES
   138   69  147 1    
   139   70   71 2    
   140   70   72 1    
   141   72   73 1    
   142   72   74 1    
   143   72  148 1    
   144   73  149 1    
   145   73  150 1    
   146   73  151 1    
   147   74   75 am   BACKBONE|DICT|INTERRES
   148   74  152 1    
   149   75   76 2    
   150   75   77 1    
   151   77   78 1    
   152   77   79 1    
   153   77  153 1    
   154   78  154 1    
   155   78  155 1    
   156   78  156 1    
   157   79   80 am   BACKBONE|DICT|INTERRES
   158   79  157 1    
   159   80   81 2    
@<TRIPOS>SUBSTRUCTURE
     1 UNK         1 GROUP             0       ****    0 ROOT    
