@<TRIPOS>MOLECULE
3R207
157   159    1
SMALL
USER_CHARGES


@<TRIPOS>ATOM
      1 CA        -46.5518  -28.7322   11.3397 C.3       0 UNK        -0.1975 
      2 C         -46.7113  -29.3473    9.9584 C.2       0 UNK         0.4852 
      3 O         -45.8679  -30.1376    9.5355 O.2       0 UNK        -0.5216 
      4 N         -47.7855  -28.9824    9.2485 N.am      1 UNK        -0.4461 
      5 CA        -48.1443  -29.4821    7.9138 C.3       1 UNK         0.0864 
      6 C6        -49.6830  -29.5023    7.7128 C.3       14 UNK        -0.0898 
      7 S7        -50.5127  -27.9303    8.1263 S.3       14 UNK        -0.2598 
      8 C8        -52.2375  -28.5040    8.2432 C.3       14 UNK         0.0286 
      9 C9        -53.1617  -27.4198    8.7778 C.ar      14 UNK        -0.0844 
     10 C10       -53.3345  -26.2302    8.0650 C.ar      14 UNK        -0.0881 
     11 C11       -54.1656  -25.2203    8.5578 C.ar      14 UNK        -0.0643 
     12 C12       -54.8541  -25.4199    9.7573 C.ar      14 UNK        -0.0930 
     13 C13       -54.7089  -26.6145   10.4681 C.ar      14 UNK        -0.0827 
     14 C14       -53.8553  -27.6076    9.9780 C.ar      14 UNK        -0.1249 
     15 C15       -55.4785  -26.8235   11.7639 C.3       14 UNK         0.0141 
     16 S16       -57.1493  -27.4708   11.4379 S.3       14 UNK        -0.2313 
     17 C17       -56.8077  -29.2463   11.1798 C.3       14 UNK        -0.0915 
     18 CA        -57.7840  -30.1693   11.9554 C.3       13 UNK         0.0968 
     19 C         -57.4445  -31.6603   11.6812 C.2       13 UNK         0.5732 
     20 N         -58.0635  -32.2635   10.6755 N.am      13 UNK        -0.7310 
     21 O         -56.5950  -32.2572   12.3408 O.2       13 UNK        -0.5035 
     22 N         -57.8118  -29.8375   13.3863 N.am      13 UNK        -0.4233 
     23 C         -58.6015  -30.3829   14.3167 C.2       13 UNK         0.4989 
     24 O         -59.4494  -31.2449   14.0765 O.2       13 UNK        -0.4996 
     25 CA        -58.4138  -29.8622   15.7587 C.3       12 UNK         0.0216 
     26 CB        -59.3469  -30.5596   16.7675 C.3       12 UNK        -0.1964 
     27 N         -57.0298  -29.9810   16.2334 N.am      12 UNK        -0.4276 
     28 C         -56.0115  -29.1925   15.8687 C.2       12 UNK         0.5020 
     29 O         -56.1194  -28.2697   15.0553 O.2       12 UNK        -0.5489 
     30 CA        -54.6456  -29.5074   16.4882 C.3       11 UNK         0.0294 
     31 CB        -54.0165  -30.7508   15.8347 C.3       11 UNK        -0.2019 
     32 N         -53.7669  -28.3622   16.2798 N.am      11 UNK        -0.4493 
     33 C         -52.8505  -27.8986   17.1318 C.2       11 UNK         0.4932 
     34 O         -52.5962  -28.4230   18.2177 O.2       11 UNK        -0.5029 
     35 CA        -52.0721  -26.6532   16.6666 C.3       10 UNK         0.0280 
     36 CB        -51.2566  -26.0039   17.8001 C.3       10 UNK        -0.1976 
     37 N         -51.1678  -26.9808   15.5646 N.am      10 UNK        -0.4242 
     38 C         -51.5195  -27.1920   14.2906 C.2       10 UNK         0.5072 
     39 O         -52.6762  -27.0836   13.8796 O.2       10 UNK        -0.5224 
     40 CA        -50.3830  -27.5932   13.3291 C.3       9 UNK         0.0343 
     41 CB        -50.8937  -27.9282   11.9162 C.3       9 UNK        -0.2003 
     42 N         -49.3579  -26.5536   13.2246 N.am      9 UNK        -0.4272 
     43 C         -48.4263  -26.2719   14.1454 C.2       9 UNK         0.4988 
     44 O         -48.3109  -26.8874   15.2065 O.2       9 UNK        -0.5108 
     45 CA        -47.4776  -25.1029   13.8471 C.3       8 UNK         0.0248 
     46 CB        -46.2946  -25.5620   12.9814 C.3       8 UNK        -0.2001 
     47 N         -48.1701  -23.9944   13.1870 N.am      8 UNK        -0.4140 
     48 C         -48.7416  -22.9687   13.8332 C.2       8 UNK         0.5028 
     49 O         -48.7095  -22.8273   15.0564 O.2       8 UNK        -0.5428 
     50 CA        -49.4657  -21.9094   12.9837 C.3       7 UNK         0.0264 
     51 CB        -48.5469  -20.7063   12.7172 C.3       7 UNK        -0.1988 
     52 N         -49.9588  -22.4340   11.7083 N.am      7 UNK        -0.4454 
     53 C         -51.0803  -23.1616   11.5825 C.2       7 UNK         0.5027 
     54 O         -51.8230  -23.4336   12.5258 O.2       7 UNK        -0.5083 
     55 CA        -51.4424  -23.6657   10.1685 C.3       6 UNK         0.0844 
     56 C56       -52.3986  -22.6498    9.4836 C.3       14 UNK        -0.0967 
     57 S57       -52.7304  -23.0022    7.7199 S.3       14 UNK        -0.2604 
     58 C58       -54.3069  -23.9095    7.7996 C.3       14 UNK         0.0134 
     59 N         -50.2760  -23.9672    9.3349 N.am      6 UNK        -0.4116 
     60 C         -49.2538  -24.7790    9.6313 C.2       5 UNK         0.5034 
     61 O         -49.1212  -25.3711   10.7022 O.2       5 UNK        -0.5045 
     62 CA        -48.1491  -24.9148    8.5736 C.3       5 UNK         0.0224 
     63 CB        -48.5810  -24.4919    7.1525 C.3       5 UNK        -0.1978 
     64 N         -46.9205  -24.2083    8.9505 N.am      5 UNK        -0.4737 
     65 C         -46.7854  -22.9410    9.3777 C.2       4 UNK         0.5027 
     66 O         -47.7277  -22.1949    9.6490 O.2       4 UNK        -0.5211 
     67 CA        -45.3469  -22.4029    9.5102 C.3       4 UNK         0.0297 
     68 CB        -44.8687  -22.4785   10.9678 C.3       4 UNK        -0.1993 
     69 N         -44.3868  -23.1090    8.6563 N.am      4 UNK        -0.4486 
     70 C         -44.3692  -23.0629    7.3172 C.2       3 UNK         0.4961 
     71 O         -45.0857  -22.3210    6.6445 O.2       3 UNK        -0.5105 
     72 CA        -43.4226  -24.0408    6.5978 C.3       3 UNK         0.0299 
     73 CB        -42.1757  -24.4297    7.4254 C.3       3 UNK        -0.1972 
     74 N         -44.1431  -25.2337    6.1333 N.am      3 UNK        -0.4305 
     75 C         -44.8059  -26.1254    6.8852 C.2       2 UNK         0.5006 
     76 O         -44.8802  -26.0784    8.1178 O.2       2 UNK        -0.5106 
     77 CA        -45.5044  -27.2639    6.1319 C.3       2 UNK         0.0296 
     78 CB        -44.4766  -28.2370    5.5201 C.3       2 UNK        -0.2002 
     79 N         -46.3714  -27.9755    7.0673 N.am      2 UNK        -0.4032 
     80 C         -47.3875  -28.7880    6.7533 C.2       1 UNK         0.5000 
     81 O         -47.7250  -29.0177    5.5898 O.2       1 UNK        -0.5238 
     82 H82       -47.3942  -28.0907   11.5971 H         1 UNK         0.0889 
     83 H83       -45.6406  -28.1362   11.3790 H         1 UNK         0.0889 
     84 H84       -46.4812  -29.5150   12.0943 H         1 UNK         0.0889 
     85 H85       -48.4466  -28.3256    9.6397 H         1 UNK         0.3028 
     86 H86       -47.8196  -30.5236    7.8597 H         1 UNK         0.0864 
     87 H87       -49.9537  -29.7925    6.6959 H         1 UNK         0.0720 
     88 H88       -50.1020  -30.2785    8.3551 H         1 UNK         0.0720 
     89 H89       -52.2794  -29.3860    8.8841 H         1 UNK         0.0814 
     90 H90       -52.5815  -28.8187    7.2570 H         1 UNK         0.0814 
     91 H91       -52.7980  -26.0777    7.1384 H         1 UNK         0.1469 
     92 H92       -55.5063  -24.6469   10.1401 H         1 UNK         0.1381 
     93 H93       -53.7339  -28.5276   10.5323 H         1 UNK         0.1206 
     94 H94       -55.5648  -25.8755   12.2969 H         1 UNK         0.0813 
     95 H95       -54.9387  -27.4932   12.4352 H         1 UNK         0.0813 
     96 H96       -55.7797  -29.4647   11.4734 H         1 UNK         0.0638 
     97 H97       -56.8656  -29.4420   10.1076 H         1 UNK         0.0638 
     98 H98       -58.7916  -29.9836   11.5788 H         1 UNK         0.0568 
     99 H99       -58.7513  -31.7793   10.1197 H         1 UNK         0.3450 
    100 H100      -57.8437  -33.2261   10.4729 H         1 UNK         0.3450 
    101 H101      -57.1394  -29.1418   13.6975 H         1 UNK         0.2987 
    102 H102      -58.6803  -28.8030   15.7453 H         1 UNK         0.0766 
    103 H103      -59.1431  -31.6291   16.8348 H         1 UNK         0.0798 
    104 H104      -59.2426  -30.1337   17.7657 H         1 UNK         0.0798 
    105 H105      -60.3926  -30.4442   16.4785 H         1 UNK         0.0798 
    106 H106      -56.8437  -30.7409   16.8728 H         1 UNK         0.3198 
    107 H107      -54.7855  -29.6801   17.5577 H         1 UNK         0.0843 
    108 H108      -54.6403  -31.6338   15.9786 H         1 UNK         0.0831 
    109 H109      -53.0399  -30.9726   16.2654 H         1 UNK         0.0831 
    110 H110      -53.8846  -30.6160   14.7600 H         1 UNK         0.0831 
    111 H111      -53.9167  -27.8623   15.4066 H         1 UNK         0.3133 
    112 H112      -52.7998  -25.9179   16.3165 H         1 UNK         0.0566 
    113 H113      -51.8999  -25.7341   18.6387 H         1 UNK         0.0814 
    114 H114      -50.7662  -25.0908   17.4615 H         1 UNK         0.0814 
    115 H115      -50.4862  -26.6754   18.1814 H         1 UNK         0.0814 
    116 H116      -50.1825  -27.0781   15.7916 H         1 UNK         0.3091 
    117 H117      -49.9215  -28.4959   13.7350 H         1 UNK         0.0702 
    118 H118      -51.3464  -27.0591   11.4362 H         1 UNK         0.0785 
    119 H119      -51.6477  -28.7154   11.9477 H         1 UNK         0.0785 
    120 H120      -50.0871  -28.2801   11.2745 H         1 UNK         0.0785 
    121 H121      -49.3636  -26.0143   12.3609 H         1 UNK         0.2998 
    122 H122      -47.0715  -24.7654   14.8033 H         1 UNK         0.0697 
    123 H123      -46.5895  -25.7475   11.9480 H         1 UNK         0.0825 
    124 H124      -45.8532  -26.4798   13.3725 H         1 UNK         0.0825 
    125 H125      -45.5069  -24.8108   12.9784 H         1 UNK         0.0825 
    126 H126      -48.3035  -24.0723   12.1864 H         1 UNK         0.3029 
    127 H127      -50.3185  -21.5547   13.5672 H         1 UNK         0.0897 
    128 H128      -49.0764  -19.9133   12.1888 H         1 UNK         0.0792 
    129 H129      -48.1778  -20.2816   13.6519 H         1 UNK         0.0792 
    130 H130      -47.6790  -20.9834   12.1196 H         1 UNK         0.0792 
    131 H131      -49.3788  -22.2706   10.8894 H         1 UNK         0.3086 
    132 H132      -51.9753  -24.6096   10.2971 H         1 UNK         0.0583 
    133 H133      -53.3455  -22.5988   10.0250 H         1 UNK         0.1020 
    134 H134      -51.9779  -21.6429    9.5281 H         1 UNK         0.1020 
    135 H135      -55.0671  -23.2712    8.2526 H         1 UNK         0.0694 
    136 H136      -54.6460  -24.1197    6.7843 H         1 UNK         0.0694 
    137 H137      -50.2730  -23.5174    8.4315 H         1 UNK         0.2989 
    138 H138      -47.9025  -25.9761    8.5397 H         1 UNK         0.1055 
    139 H139      -49.4913  -25.0090    6.8443 H         1 UNK         0.0806 
    140 H140      -47.8113  -24.7445    6.4231 H         1 UNK         0.0806 
    141 H141      -48.7596  -23.4186    7.0763 H         1 UNK         0.0806 
    142 H142      -46.0662  -24.7387    8.7985 H         1 UNK         0.3061 
    143 H143      -45.3661  -21.3535    9.2085 H         1 UNK         0.0734 
    144 H144      -45.5913  -22.0282   11.6487 H         1 UNK         0.0832 
    145 H145      -44.7171  -23.5096   11.2838 H         1 UNK         0.0832 
    146 H146      -43.9261  -21.9474   11.1013 H         1 UNK         0.0832 
    147 H147      -43.7806  -23.7782    9.1091 H         1 UNK         0.3156 
    148 H148      -43.0695  -23.5238    5.7041 H         1 UNK         0.0589 
    149 H149      -42.4189  -25.0316    8.3012 H         1 UNK         0.0808 
    150 H150      -41.4748  -25.0058    6.8212 H         1 UNK         0.0808 
    151 H151      -41.6432  -23.5427    7.7716 H         1 UNK         0.0808 
    152 H152      -44.1712  -25.3508    5.1296 H         1 UNK         0.3098 
    153 H153      -46.1181  -26.8254    5.3421 H         1 UNK         0.0720 
    154 H154      -44.9659  -29.0401    4.9688 H         1 UNK         0.0791 
    155 H155      -43.8520  -28.6939    6.2889 H         1 UNK         0.0791 
    156 H156      -43.8135  -27.7288    4.8192 H         1 UNK         0.0791 
    157 H157      -46.1468  -27.8126    8.0409 H         1 UNK         0.3028 
@<TRIPOS>BOND
     1    1    2 1    
     2    1   82 1    
     3    1   83 1    
     4    1   84 1    
     5    2    3 2    
     6    2    4 am   BACKBONE|DICT|INTERRES
     7    4    5 1    
     8    4   85 1    
     9    5    6 1    
    10    5   80 1    
    11    5   86 1    
    12    6    7 1    
    13    6   87 1    
    14    6   88 1    
    15    7    8 1    
    16    8    9 1    
    17    8   89 1    
    18    8   90 1    
    19    9   10 ar   
    20    9   14 ar   
    21   10   11 ar   
    22   10   91 1    
    23   11   12 ar   
    24   11   58 1    
    25   12   13 ar   
    26   12   92 1    
    27   13   14 ar   
    28   13   15 1    
    29   14   93 1    
    30   15   16 1    
    31   15   94 1    
    32   15   95 1    
    33   16   17 1    
    34   17   18 1    
    35   17   96 1    
    36   17   97 1    
    37   18   19 1    
    38   18   22 1    
    39   18   98 1    
    40   19   20 am   BACKBONE|DICT|INTERRES
    41   19   21 2    
    42   20   99 1    
    43   20  100 1    
    44   22   23 am   BACKBONE|DICT|INTERRES
    45   22  101 1    
    46   23   24 2    
    47   23   25 1    
    48   25   26 1    
    49   25   27 1    
    50   25  102 1    
    51   26  103 1    
    52   26  104 1    
    53   26  105 1    
    54   27   28 am   BACKBONE|DICT|INTERRES
    55   27  106 1    
    56   28   29 2    
    57   28   30 1    
    58   30   31 1    
    59   30   32 1    
    60   30  107 1    
    61   31  108 1    
    62   31  109 1    
    63   31  110 1    
    64   32   33 am   BACKBONE|DICT|INTERRES
    65   32  111 1    
    66   33   34 2    
    67   33   35 1    
    68   35   36 1    
    69   35   37 1    
    70   35  112 1    
    71   36  113 1    
    72   36  114 1    
    73   36  115 1    
    74   37   38 am   BACKBONE|DICT|INTERRES
    75   37  116 1    
    76   38   39 2    
    77   38   40 1    
    78   40   41 1    
    79   40   42 1    
    80   40  117 1    
    81   41  118 1    
    82   41  119 1    
    83   41  120 1    
    84   42   43 am   BACKBONE|DICT|INTERRES
    85   42  121 1    
    86   43   44 2    
    87   43   45 1    
    88   45   46 1    
    89   45   47 1    
    90   45  122 1    
    91   46  123 1    
    92   46  124 1    
    93   46  125 1    
    94   47   48 am   BACKBONE|DICT|INTERRES
    95   47  126 1    
    96   48   49 2    
    97   48   50 1    
    98   50   51 1    
    99   50   52 1    
   100   50  127 1    
   101   51  128 1    
   102   51  129 1    
   103   51  130 1    
   104   52   53 am   BACKBONE|DICT|INTERRES
   105   52  131 1    
   106   53   54 2    
   107   53   55 1    
   108   55   56 1    
   109   55   59 1    
   110   55  132 1    
   111   56   57 1    
   112   56  133 1    
   113   56  134 1    
   114   57   58 1    
   115   58  135 1    
   116   58  136 1    
   117   59   60 am   BACKBONE|DICT|INTERRES
   118   59  137 1    
   119   60   61 2    
   120   60   62 1    
   121   62   63 1    
   122   62   64 1    
   123   62  138 1    
   124   63  139 1    
   125   63  140 1    
   126   63  141 1    
   127   64   65 am   BACKBONE|DICT|INTERRES
   128   64  142 1    
   129   65   66 2    
   130   65   67 1    
   131   67   68 1    
   132   67   69 1    
   133   67  143 1    
   134   68  144 1    
   135   68  145 1    
   136   68  146 1    
   137   69   70 am   BACKBONE|DICT|INTERRES
   138   69  147 1    
   139   70   71 2    
   140   70   72 1    
   141   72   73 1    
   142   72   74 1    
   143   72  148 1    
   144   73  149 1    
   145   73  150 1    
   146   73  151 1    
   147   74   75 am   BACKBONE|DICT|INTERRES
   148   74  152 1    
   149   75   76 2    
   150   75   77 1    
   151   77   78 1    
   152   77   79 1    
   153   77  153 1    
   154   78  154 1    
   155   78  155 1    
   156   78  156 1    
   157   79   80 am   BACKBONE|DICT|INTERRES
   158   79  157 1    
   159   80   81 2    
@<TRIPOS>SUBSTRUCTURE
     1 UNK         1 GROUP             0       ****    0 ROOT    
