@<TRIPOS>MOLECULE
3R207
157   159    1
SMALL
USER_CHARGES


@<TRIPOS>ATOM
      1 CA        -48.5477  -27.4652    5.9041 C.3       0 UNK        -0.1975 
      2 C         -49.6742  -26.4448    5.8563 C.2       0 UNK         0.4852 
      3 O         -49.5430  -25.4177    5.1898 O.2       0 UNK        -0.5216 
      4 N         -50.7842  -26.7204    6.5537 N.am      1 UNK        -0.4461 
      5 CA        -51.9175  -25.8018    6.7099 C.3       1 UNK         0.0864 
      6 C6        -53.1746  -26.4890    7.2938 C.3       14 UNK        -0.0898 
      7 S7        -53.7610  -27.8844    6.2768 S.3       14 UNK        -0.2598 
      8 C8        -54.7659  -28.8035    7.4962 C.3       14 UNK         0.0286 
      9 C9        -54.0052  -29.8251    8.3464 C.ar      14 UNK        -0.0844 
     10 C10       -52.6338  -29.7161    8.6132 C.ar      14 UNK        -0.0881 
     11 C11       -51.9764  -30.6464    9.4277 C.ar      14 UNK        -0.0643 
     12 C12       -52.7051  -31.7246    9.9369 C.ar      14 UNK        -0.0930 
     13 C13       -54.0748  -31.8516    9.6874 C.ar      14 UNK        -0.0827 
     14 C14       -54.7175  -30.8926    8.9014 C.ar      14 UNK        -0.1249 
     15 C15       -54.8593  -33.0310   10.2500 C.3       14 UNK         0.0141 
     16 S16       -55.5968  -32.6651   11.8779 S.3       14 UNK        -0.2313 
     17 C17       -54.1155  -32.6318   12.9484 C.3       14 UNK        -0.0915 
     18 CA        -53.7379  -31.2244   13.4934 C.3       13 UNK         0.0968 
     19 C         -52.3318  -31.2708   14.1572 C.2       13 UNK         0.5732 
     20 N         -51.3116  -30.6493   13.5795 N.am      13 UNK        -0.7310 
     21 O         -52.1671  -31.8891   15.2059 O.2       13 UNK        -0.5035 
     22 N         -53.9317  -30.1579   12.4948 N.am      13 UNK        -0.4233 
     23 C         -53.9787  -28.8512   12.7727 C.2       13 UNK         0.4989 
     24 O         -53.7494  -28.3724   13.8828 O.2       13 UNK        -0.4996 
     25 CA        -54.4208  -27.9287   11.6343 C.3       12 UNK         0.0216 
     26 CB        -55.9614  -27.9372   11.5301 C.3       12 UNK        -0.1964 
     27 N         -53.8992  -26.5869   11.8934 N.am      12 UNK        -0.4276 
     28 C         -54.0145  -25.5166   11.1000 C.2       12 UNK         0.5020 
     29 O         -54.6631  -25.5089   10.0531 O.2       12 UNK        -0.5489 
     30 CA        -53.2379  -24.2527   11.5098 C.3       11 UNK         0.0294 
     31 CB        -53.8616  -22.9496   10.9659 C.3       11 UNK        -0.2019 
     32 N         -52.9326  -24.1493   12.9431 N.am      11 UNK        -0.4493 
     33 C         -53.7686  -23.8957   13.9578 C.2       11 UNK         0.4932 
     34 O         -54.9927  -23.8191   13.8448 O.2       11 UNK        -0.5029 
     35 CA        -53.0925  -23.6233   15.3151 C.3       10 UNK         0.0280 
     36 CB        -54.0860  -23.4240   16.4817 C.3       10 UNK        -0.1976 
     37 N         -52.0247  -24.5837   15.6275 N.am      10 UNK        -0.4242 
     38 C         -52.1479  -25.8394   16.0887 C.2       10 UNK         0.5072 
     39 O         -53.2281  -26.3549   16.3761 O.2       10 UNK        -0.5224 
     40 CA        -50.8577  -26.6641   16.2986 C.3       9 UNK         0.0343 
     41 CB        -50.9866  -28.0745   15.7032 C.3       9 UNK        -0.2003 
     42 N         -49.6691  -26.0365   15.7213 N.am      9 UNK        -0.4272 
     43 C         -48.8227  -25.2215   16.3645 C.2       9 UNK         0.4988 
     44 O         -48.9149  -24.9435   17.5603 O.2       9 UNK        -0.5108 
     45 CA        -47.7008  -24.5737   15.5261 C.3       8 UNK         0.0248 
     46 CB        -46.3931  -25.3683   15.6669 C.3       8 UNK        -0.2001 
     47 N         -48.0302  -24.4196   14.1031 N.am      8 UNK        -0.4140 
     48 C         -49.0663  -23.7074   13.6365 C.2       8 UNK         0.5028 
     49 O         -49.8548  -23.0880   14.3507 O.2       8 UNK        -0.5428 
     50 CA        -49.3109  -23.7503   12.1237 C.3       7 UNK         0.0264 
     51 CB        -48.3894  -22.7470   11.4173 C.3       7 UNK        -0.1988 
     52 N         -49.1715  -25.0997   11.5567 N.am      7 UNK        -0.4454 
     53 C         -49.9174  -26.1585   11.9207 C.2       7 UNK         0.5027 
     54 O         -50.8308  -26.0942   12.7426 O.2       7 UNK        -0.5083 
     55 CA        -49.5399  -27.5332   11.3334 C.3       6 UNK         0.0844 
     56 C56       -50.0889  -27.7004    9.8972 C.3       14 UNK        -0.0967 
     57 S57       -49.5259  -29.2042    9.0236 S.3       14 UNK        -0.2604 
     58 C58       -50.4926  -30.5482    9.7966 C.3       14 UNK         0.0134 
     59 N         -48.0999  -27.7565   11.4385 N.am      6 UNK        -0.4116 
     60 C         -47.4413  -27.9076   12.5965 C.2       5 UNK         0.5034 
     61 O         -47.9902  -27.9467   13.6973 O.2       5 UNK        -0.5045 
     62 CA        -45.9084  -28.0049   12.5225 C.3       5 UNK         0.0224 
     63 CB        -45.4633  -29.4754   12.5595 C.3       5 UNK        -0.1978 
     64 N         -45.3382  -27.3557   11.3386 N.am      5 UNK        -0.4737 
     65 C         -45.4008  -26.0438   11.0719 C.2       4 UNK         0.5027 
     66 O         -45.9187  -25.2236   11.8336 O.2       4 UNK        -0.5211 
     67 CA        -44.7787  -25.5778    9.7375 C.3       4 UNK         0.0297 
     68 CB        -44.5520  -26.7249    8.7240 C.3       4 UNK        -0.1993 
     69 N         -45.5206  -24.4921    9.0849 N.am      4 UNK        -0.4486 
     70 C         -46.8098  -24.4909    8.7189 C.2       3 UNK         0.4961 
     71 O         -47.6189  -25.3810    8.9960 O.2       3 UNK        -0.5105 
     72 CA        -47.2498  -23.2943    7.8656 C.3       3 UNK         0.0299 
     73 CB        -46.7334  -23.4384    6.4208 C.3       3 UNK        -0.1972 
     74 N         -48.7067  -23.1945    7.8692 N.am      3 UNK        -0.4305 
     75 C         -49.4183  -22.0974    7.5808 C.2       2 UNK         0.5006 
     76 O         -48.9049  -21.0322    7.2330 O.2       2 UNK        -0.5106 
     77 CA        -50.9555  -22.2028    7.7005 C.3       2 UNK         0.0296 
     78 CB        -51.6852  -20.9701    7.1337 C.3       2 UNK        -0.2002 
     79 N         -51.4735  -23.4048    7.0418 N.am      2 UNK        -0.4032 
     80 C         -51.4867  -24.6208    7.5986 C.2       1 UNK         0.5000 
     81 O         -51.1210  -24.8357    8.7552 O.2       1 UNK        -0.5238 
     82 H82       -47.8288  -27.1902    6.6761 H         1 UNK         0.0889 
     83 H83       -48.0266  -27.5025    4.9479 H         1 UNK         0.0889 
     84 H84       -48.9216  -28.4654    6.1214 H         1 UNK         0.0889 
     85 H85       -50.8331  -27.5771    7.0835 H         1 UNK         0.3028 
     86 H86       -52.1770  -25.4200    5.7200 H         1 UNK         0.0864 
     87 H87       -52.9891  -26.8331    8.3123 H         1 UNK         0.0720 
     88 H88       -53.9939  -25.7712    7.3678 H         1 UNK         0.0720 
     89 H89       -55.5531  -29.3180    6.9429 H         1 UNK         0.0814 
     90 H90       -55.2708  -28.0970    8.1572 H         1 UNK         0.0814 
     91 H91       -52.0778  -28.9011    8.1856 H         1 UNK         0.1469 
     92 H92       -52.1980  -32.4655   10.5389 H         1 UNK         0.1381 
     93 H93       -55.7787  -30.9854    8.7120 H         1 UNK         0.1206 
     94 H94       -54.2218  -33.9133   10.3246 H         1 UNK         0.0813 
     95 H95       -55.6598  -33.3003    9.5592 H         1 UNK         0.0813 
     96 H96       -53.2800  -33.0804   12.4111 H         1 UNK         0.0638 
     97 H97       -54.3060  -33.3046   13.7864 H         1 UNK         0.0638 
     98 H98       -54.4370  -31.0026   14.3020 H         1 UNK         0.0568 
     99 H99       -50.4044  -30.6826   14.0153 H         1 UNK         0.3450 
    100 H100      -51.4570  -30.1241   12.7359 H         1 UNK         0.3450 
    101 H101      -54.1380  -30.4770   11.5576 H         1 UNK         0.2987 
    102 H102      -53.9849  -28.2864   10.7017 H         1 UNK         0.0766 
    103 H103      -56.3148  -27.3877   10.6585 H         1 UNK         0.0798 
    104 H104      -56.4238  -27.4969   12.4144 H         1 UNK         0.0798 
    105 H105      -56.3439  -28.9543   11.4327 H         1 UNK         0.0798 
    106 H106      -53.3476  -26.5110   12.7418 H         1 UNK         0.3198 
    107 H107      -52.2711  -24.3588   11.0202 H         1 UNK         0.0843 
    108 H108      -53.2659  -22.0790   11.2392 H         1 UNK         0.0831 
    109 H109      -54.8743  -22.7991   11.3404 H         1 UNK         0.0831 
    110 H110      -53.9181  -22.9705    9.8766 H         1 UNK         0.0831 
    111 H111      -51.9633  -24.3261   13.1784 H         1 UNK         0.3133 
    112 H112      -52.5778  -22.6695   15.1892 H         1 UNK         0.0566 
    113 H113      -53.5660  -23.2388   17.4215 H         1 UNK         0.0814 
    114 H114      -54.7326  -22.5660   16.2946 H         1 UNK         0.0814 
    115 H115      -54.7368  -24.2876   16.6191 H         1 UNK         0.0814 
    116 H116      -51.0898  -24.2496   15.4117 H         1 UNK         0.3091 
    117 H117      -50.7242  -26.7700   17.3769 H         1 UNK         0.0702 
    118 H118      -50.0962  -28.6723   15.8979 H         1 UNK         0.0785 
    119 H119      -51.1316  -28.0352   14.6236 H         1 UNK         0.0785 
    120 H120      -51.8369  -28.6111   16.1260 H         1 UNK         0.0785 
    121 H121      -49.5096  -26.2196   14.7384 H         1 UNK         0.2998 
    122 H122      -47.5342  -23.5717   15.9268 H         1 UNK         0.0697 
    123 H123      -45.5859  -24.9181   15.0884 H         1 UNK         0.0825 
    124 H124      -46.0686  -25.3987   16.7079 H         1 UNK         0.0825 
    125 H125      -46.5114  -26.3998   15.3365 H         1 UNK         0.0825 
    126 H126      -47.4197  -24.8731   13.4318 H         1 UNK         0.3029 
    127 H127      -50.3363  -23.4220   11.9523 H         1 UNK         0.0897 
    128 H128      -48.7122  -22.5775   10.3956 H         1 UNK         0.0792 
    129 H129      -48.4125  -21.7756   11.9139 H         1 UNK         0.0792 
    130 H130      -47.3515  -23.0776   11.4022 H         1 UNK         0.0792 
    131 H131      -48.4484  -25.2346   10.8562 H         1 UNK         0.3086 
    132 H132      -50.0254  -28.2875   11.9557 H         1 UNK         0.0583 
    133 H133      -51.1786  -27.6571    9.9076 H         1 UNK         0.1020 
    134 H134      -49.7602  -26.8636    9.2821 H         1 UNK         0.1020 
    135 H135      -50.0134  -31.4882    9.5190 H         1 UNK         0.0694 
    136 H136      -50.3943  -30.4697   10.8788 H         1 UNK         0.0694 
    137 H137      -47.5749  -27.7224   10.5768 H         1 UNK         0.2989 
    138 H138      -45.5075  -27.5008   13.4042 H         1 UNK         0.1055 
    139 H139      -45.8520  -29.9777   13.4467 H         1 UNK         0.0806 
    140 H140      -44.3770  -29.5617   12.5918 H         1 UNK         0.0806 
    141 H141      -45.8204  -30.0287   11.6898 H         1 UNK         0.0806 
    142 H142      -44.8869  -27.9579   10.6648 H         1 UNK         0.3061 
    143 H143      -43.8021  -25.1651    9.9944 H         1 UNK         0.0734 
    144 H144      -45.4812  -27.2422    8.4800 H         1 UNK         0.0832 
    145 H145      -44.1360  -26.3452    7.7906 H         1 UNK         0.0832 
    146 H146      -43.8430  -27.4632    9.1004 H         1 UNK         0.0832 
    147 H147      -44.9663  -23.6806    8.8491 H         1 UNK         0.3156 
    148 H148      -46.8357  -22.3886    8.3136 H         1 UNK         0.0589 
    149 H149      -47.0212  -22.5861    5.8054 H         1 UNK         0.0808 
    150 H150      -45.6450  -23.5008    6.3922 H         1 UNK         0.0808 
    151 H151      -47.1237  -24.3388    5.9452 H         1 UNK         0.0808 
    152 H152      -49.1888  -24.0274    8.1959 H         1 UNK         0.3098 
    153 H153      -51.1850  -22.2541    8.7674 H         1 UNK         0.0720 
    154 H154      -51.3718  -20.0592    7.6456 H         1 UNK         0.0791 
    155 H155      -52.7644  -21.0545    7.2626 H         1 UNK         0.0791 
    156 H156      -51.4826  -20.8342    6.0706 H         1 UNK         0.0791 
    157 H157      -51.7228  -23.3112    6.0674 H         1 UNK         0.3028 
@<TRIPOS>BOND
     1    1    2 1    
     2    1   82 1    
     3    1   83 1    
     4    1   84 1    
     5    2    3 2    
     6    2    4 am   BACKBONE|DICT|INTERRES
     7    4    5 1    
     8    4   85 1    
     9    5    6 1    
    10    5   80 1    
    11    5   86 1    
    12    6    7 1    
    13    6   87 1    
    14    6   88 1    
    15    7    8 1    
    16    8    9 1    
    17    8   89 1    
    18    8   90 1    
    19    9   10 ar   
    20    9   14 ar   
    21   10   11 ar   
    22   10   91 1    
    23   11   12 ar   
    24   11   58 1    
    25   12   13 ar   
    26   12   92 1    
    27   13   14 ar   
    28   13   15 1    
    29   14   93 1    
    30   15   16 1    
    31   15   94 1    
    32   15   95 1    
    33   16   17 1    
    34   17   18 1    
    35   17   96 1    
    36   17   97 1    
    37   18   19 1    
    38   18   22 1    
    39   18   98 1    
    40   19   20 am   BACKBONE|DICT|INTERRES
    41   19   21 2    
    42   20   99 1    
    43   20  100 1    
    44   22   23 am   BACKBONE|DICT|INTERRES
    45   22  101 1    
    46   23   24 2    
    47   23   25 1    
    48   25   26 1    
    49   25   27 1    
    50   25  102 1    
    51   26  103 1    
    52   26  104 1    
    53   26  105 1    
    54   27   28 am   BACKBONE|DICT|INTERRES
    55   27  106 1    
    56   28   29 2    
    57   28   30 1    
    58   30   31 1    
    59   30   32 1    
    60   30  107 1    
    61   31  108 1    
    62   31  109 1    
    63   31  110 1    
    64   32   33 am   BACKBONE|DICT|INTERRES
    65   32  111 1    
    66   33   34 2    
    67   33   35 1    
    68   35   36 1    
    69   35   37 1    
    70   35  112 1    
    71   36  113 1    
    72   36  114 1    
    73   36  115 1    
    74   37   38 am   BACKBONE|DICT|INTERRES
    75   37  116 1    
    76   38   39 2    
    77   38   40 1    
    78   40   41 1    
    79   40   42 1    
    80   40  117 1    
    81   41  118 1    
    82   41  119 1    
    83   41  120 1    
    84   42   43 am   BACKBONE|DICT|INTERRES
    85   42  121 1    
    86   43   44 2    
    87   43   45 1    
    88   45   46 1    
    89   45   47 1    
    90   45  122 1    
    91   46  123 1    
    92   46  124 1    
    93   46  125 1    
    94   47   48 am   BACKBONE|DICT|INTERRES
    95   47  126 1    
    96   48   49 2    
    97   48   50 1    
    98   50   51 1    
    99   50   52 1    
   100   50  127 1    
   101   51  128 1    
   102   51  129 1    
   103   51  130 1    
   104   52   53 am   BACKBONE|DICT|INTERRES
   105   52  131 1    
   106   53   54 2    
   107   53   55 1    
   108   55   56 1    
   109   55   59 1    
   110   55  132 1    
   111   56   57 1    
   112   56  133 1    
   113   56  134 1    
   114   57   58 1    
   115   58  135 1    
   116   58  136 1    
   117   59   60 am   BACKBONE|DICT|INTERRES
   118   59  137 1    
   119   60   61 2    
   120   60   62 1    
   121   62   63 1    
   122   62   64 1    
   123   62  138 1    
   124   63  139 1    
   125   63  140 1    
   126   63  141 1    
   127   64   65 am   BACKBONE|DICT|INTERRES
   128   64  142 1    
   129   65   66 2    
   130   65   67 1    
   131   67   68 1    
   132   67   69 1    
   133   67  143 1    
   134   68  144 1    
   135   68  145 1    
   136   68  146 1    
   137   69   70 am   BACKBONE|DICT|INTERRES
   138   69  147 1    
   139   70   71 2    
   140   70   72 1    
   141   72   73 1    
   142   72   74 1    
   143   72  148 1    
   144   73  149 1    
   145   73  150 1    
   146   73  151 1    
   147   74   75 am   BACKBONE|DICT|INTERRES
   148   74  152 1    
   149   75   76 2    
   150   75   77 1    
   151   77   78 1    
   152   77   79 1    
   153   77  153 1    
   154   78  154 1    
   155   78  155 1    
   156   78  156 1    
   157   79   80 am   BACKBONE|DICT|INTERRES
   158   79  157 1    
   159   80   81 2    
@<TRIPOS>SUBSTRUCTURE
     1 UNK         1 GROUP             0       ****    0 ROOT    
