@<TRIPOS>MOLECULE
3R207
157   159    1
SMALL
USER_CHARGES


@<TRIPOS>ATOM
      1 CA        -45.9963  -29.4165    0.7953 C.3       0 UNK        -0.1975 
      2 C         -47.0528  -28.5766    1.4980 C.2       0 UNK         0.4852 
      3 O         -47.0801  -27.3584    1.3204 O.2       0 UNK        -0.5216 
      4 N         -47.9240  -29.2213    2.2872 N.am      1 UNK        -0.4461 
      5 CA        -48.9884  -28.5872    3.0735 C.3       1 UNK         0.0864 
      6 C6        -49.9881  -29.6518    3.5986 C.3       14 UNK        -0.0898 
      7 S7        -51.3499  -29.0043    4.6324 S.3       14 UNK        -0.2598 
      8 C8        -50.9426  -29.7977    6.2269 C.3       14 UNK         0.0286 
      9 C9        -51.8837  -29.4934    7.3932 C.ar      14 UNK        -0.0844 
     10 C10       -51.4577  -29.8352    8.6804 C.ar      14 UNK        -0.0881 
     11 C11       -52.2722  -29.6122    9.7942 C.ar      14 UNK        -0.0643 
     12 C12       -53.5299  -29.0321    9.6154 C.ar      14 UNK        -0.0930 
     13 C13       -53.9842  -28.7042    8.3340 C.ar      14 UNK        -0.0827 
     14 C14       -53.1587  -28.9338    7.2285 C.ar      14 UNK        -0.1249 
     15 C15       -55.3858  -28.1439    8.1474 C.3       14 UNK         0.0141 
     16 S16       -56.6147  -29.4820    8.2736 S.3       14 UNK        -0.2313 
     17 C17       -58.0536  -28.6490    9.0347 C.3       14 UNK        -0.0915 
     18 CA        -58.0913  -28.7313   10.5878 C.3       13 UNK         0.0968 
     19 C         -58.1669  -30.2003   11.1073 C.2       13 UNK         0.5732 
     20 N         -57.1693  -30.7106   11.8192 N.am      13 UNK        -0.7310 
     21 O         -59.1586  -30.8841   10.8641 O.2       13 UNK        -0.5035 
     22 N         -57.0529  -27.8707   11.1763 N.am      13 UNK        -0.4233 
     23 C         -56.9395  -27.5256   12.4628 C.2       13 UNK         0.4989 
     24 O         -57.6628  -27.9410   13.3708 O.2       13 UNK        -0.4996 
     25 CA        -55.8477  -26.5009   12.7766 C.3       12 UNK         0.0216 
     26 CB        -56.4083  -25.0676   12.6888 C.3       12 UNK        -0.1964 
     27 N         -55.3104  -26.7624   14.1092 N.am      12 UNK        -0.4276 
     28 C         -54.1277  -26.3184   14.5441 C.2       12 UNK         0.5020 
     29 O         -53.3813  -25.6094   13.8665 O.2       12 UNK        -0.5489 
     30 CA        -53.6909  -26.7667   15.9458 C.3       11 UNK         0.0294 
     31 CB        -52.9532  -28.1143   15.8705 C.3       11 UNK        -0.2019 
     32 N         -52.7818  -25.7695   16.5084 N.am      11 UNK        -0.4493 
     33 C         -53.0549  -24.9652   17.5425 C.2       11 UNK         0.4932 
     34 O         -54.0928  -25.0367   18.2037 O.2       11 UNK        -0.5029 
     35 CA        -52.0078  -23.8832   17.8804 C.3       10 UNK         0.0280 
     36 CB        -52.1700  -23.3020   19.3017 C.3       10 UNK        -0.1976 
     37 N         -50.6240  -24.3059   17.6352 N.am      10 UNK        -0.4242 
     38 C         -49.9411  -25.2869   18.2483 C.2       10 UNK         0.5072 
     39 O         -50.3964  -25.9586   19.1755 O.2       10 UNK        -0.5224 
     40 CA        -48.5102  -25.5891   17.7525 C.3       9 UNK         0.0343 
     41 CB        -48.3796  -27.0587   17.3136 C.3       9 UNK        -0.2003 
     42 N         -48.0894  -24.7298   16.6430 N.am      9 UNK        -0.4272 
     43 C         -47.5270  -23.5204   16.7705 C.2       9 UNK         0.4988 
     44 O         -47.2221  -23.0187   17.8528 O.2       9 UNK        -0.5108 
     45 CA        -47.2913  -22.7165   15.4764 C.3       8 UNK         0.0248 
     46 CB        -45.8774  -22.9761   14.9327 C.3       8 UNK        -0.2001 
     47 N         -48.2786  -22.9872   14.4244 N.am      8 UNK        -0.4140 
     48 C         -49.5940  -22.7445   14.5320 C.2       8 UNK         0.5028 
     49 O         -50.1107  -22.2124   15.5143 O.2       8 UNK        -0.5428 
     50 CA        -50.4970  -23.2462   13.3923 C.3       7 UNK         0.0264 
     51 CB        -50.4884  -22.2632   12.2121 C.3       7 UNK        -0.1988 
     52 N         -50.1395  -24.5896   12.9278 N.am      7 UNK        -0.4454 
     53 C         -50.1362  -25.6865   13.7007 C.2       7 UNK         0.5027 
     54 O         -50.4361  -25.6820   14.8938 O.2       7 UNK        -0.5083 
     55 CA        -49.6499  -26.9982   13.0624 C.3       6 UNK         0.0844 
     56 C56       -50.7597  -27.6733   12.2228 C.3       14 UNK        -0.0967 
     57 S57       -50.2355  -29.3297   11.6765 S.3       14 UNK        -0.2604 
     58 C58       -51.8213  -30.0676   11.1762 C.3       14 UNK         0.0134 
     59 N         -48.4182  -26.7764   12.3037 N.am      6 UNK        -0.4116 
     60 C         -47.2325  -26.4697   12.8468 C.2       5 UNK         0.5034 
     61 O         -47.0233  -26.4107   14.0584 O.2       5 UNK        -0.5045 
     62 CA        -46.1006  -26.1254   11.8659 C.3       5 UNK         0.0224 
     63 CB        -45.3922  -27.4001   11.3811 C.3       5 UNK        -0.1978 
     64 N         -46.5832  -25.3584   10.7135 N.am      5 UNK        -0.4737 
     65 C         -47.0340  -24.0967   10.7923 C.2       4 UNK         0.5027 
     66 O         -47.0380  -23.4399   11.8326 O.2       4 UNK        -0.5211 
     67 CA        -47.6224  -23.4770    9.5120 C.3       4 UNK         0.0297 
     68 CB        -46.5183  -22.7913    8.6926 C.3       4 UNK        -0.1993 
     69 N         -48.3263  -24.4463    8.6690 N.am      4 UNK        -0.4486 
     70 C         -49.3879  -25.1731    9.0481 C.2       3 UNK         0.4961 
     71 O         -49.9421  -25.0454   10.1386 O.2       3 UNK        -0.5105 
     72 CA        -49.8938  -26.2502    8.0723 C.3       3 UNK         0.0299 
     73 CB        -51.1559  -25.7636    7.3446 C.3       3 UNK        -0.1972 
     74 N         -48.8958  -26.6671    7.0819 N.am      3 UNK        -0.4305 
     75 C         -47.7391  -27.2897    7.3437 C.2       2 UNK         0.5006 
     76 O         -47.3757  -27.5775    8.4855 O.2       2 UNK        -0.5106 
     77 CA        -46.8269  -27.6069    6.1357 C.3       2 UNK         0.0296 
     78 CB        -45.6042  -28.4558    6.5322 C.3       2 UNK        -0.2002 
     79 N         -47.5172  -28.2662    5.0192 N.am      2 UNK        -0.4032 
     80 C         -48.4054  -27.6951    4.1910 C.2       1 UNK         0.5000 
     81 O         -48.7620  -26.5180    4.2825 O.2       1 UNK        -0.5238 
     82 H82       -46.0851  -29.3040   -0.2849 H         1 UNK         0.0889 
     83 H83       -46.0902  -30.4757    1.0343 H         1 UNK         0.0889 
     84 H84       -44.9998  -29.0896    1.0913 H         1 UNK         0.0889 
     85 H85       -47.8526  -30.2255    2.3725 H         1 UNK         0.3028 
     86 H86       -49.5393  -27.9265    2.4002 H         1 UNK         0.0864 
     87 H87       -50.4456  -30.1626    2.7498 H         1 UNK         0.0720 
     88 H88       -49.4548  -30.4282    4.1499 H         1 UNK         0.0720 
     89 H89       -49.9304  -29.5006    6.5051 H         1 UNK         0.0814 
     90 H90       -50.9225  -30.8788    6.0820 H         1 UNK         0.0814 
     91 H91       -50.4873  -30.2925    8.8200 H         1 UNK         0.1469 
     92 H92       -54.1748  -28.8752   10.4684 H         1 UNK         0.1381 
     93 H93       -53.5262  -28.6896    6.2423 H         1 UNK         0.1206 
     94 H94       -55.5686  -27.3713    8.8933 H         1 UNK         0.0813 
     95 H95       -55.4853  -27.6577    7.1756 H         1 UNK         0.0813 
     96 H96       -58.0833  -27.6086    8.7068 H         1 UNK         0.0638 
     97 H97       -58.9540  -29.1065    8.6210 H         1 UNK         0.0638 
     98 H98       -59.0383  -28.2844   10.8961 H         1 UNK         0.0568 
     99 H99       -57.2364  -31.6596   12.1506 H         1 UNK         0.3450 
    100 H100      -56.3581  -30.1560   12.0332 H         1 UNK         0.3450 
    101 H101      -56.4084  -27.4685   10.5155 H         1 UNK         0.2987 
    102 H102      -55.0425  -26.6176   12.0472 H         1 UNK         0.0766 
    103 H103      -55.6293  -24.3225   12.8512 H         1 UNK         0.0798 
    104 H104      -57.1922  -24.8975   13.4279 H         1 UNK         0.0798 
    105 H105      -56.8378  -24.8724   11.7053 H         1 UNK         0.0798 
    106 H106      -55.8845  -27.3634   14.6887 H         1 UNK         0.3198 
    107 H107      -54.5788  -26.8816   16.5711 H         1 UNK         0.0843 
    108 H108      -52.0532  -28.0487   15.2580 H         1 UNK         0.0831 
    109 H109      -53.5883  -28.8891   15.4394 H         1 UNK         0.0831 
    110 H110      -52.6542  -28.4542   16.8622 H         1 UNK         0.0831 
    111 H111      -51.9311  -25.6128   15.9680 H         1 UNK         0.3133 
    112 H112      -52.1927  -23.0697   17.1778 H         1 UNK         0.0566 
    113 H113      -51.4271  -22.5299   19.5015 H         1 UNK         0.0814 
    114 H114      -53.1520  -22.8442   19.4270 H         1 UNK         0.0814 
    115 H115      -52.0715  -24.0706   20.0687 H         1 UNK         0.0814 
    116 H116      -50.1669  -23.8193   16.8717 H         1 UNK         0.3091 
    117 H117      -47.8380  -25.4318   18.5984 H         1 UNK         0.0702 
    118 H118      -48.6003  -27.7360   18.1395 H         1 UNK         0.0785 
    119 H119      -49.0661  -27.3016   16.5023 H         1 UNK         0.0785 
    120 H120      -47.3685  -27.2825   16.9727 H         1 UNK         0.0785 
    121 H121      -48.3052  -25.0689   15.7137 H         1 UNK         0.2998 
    122 H122      -47.3684  -21.6578   15.7319 H         1 UNK         0.0697 
    123 H123      -45.7465  -24.0157   14.6309 H         1 UNK         0.0825 
    124 H124      -45.1211  -22.7567   15.6875 H         1 UNK         0.0825 
    125 H125      -45.6635  -22.3478   14.0678 H         1 UNK         0.0825 
    126 H126      -47.9221  -23.3677   13.5507 H         1 UNK         0.3029 
    127 H127      -51.5167  -23.3045   13.7801 H         1 UNK         0.0897 
    128 H128      -51.1398  -22.6030   11.4065 H         1 UNK         0.0792 
    129 H129      -49.4871  -22.1331   11.8030 H         1 UNK         0.0792 
    130 H130      -50.8421  -21.2797   12.5241 H         1 UNK         0.0792 
    131 H131      -49.9306  -24.6942   11.9362 H         1 UNK         0.3086 
    132 H132      -49.4058  -27.6735   13.8859 H         1 UNK         0.0583 
    133 H133      -51.6732  -27.7721   12.8122 H         1 UNK         0.1020 
    134 H134      -51.0250  -27.0758   11.3495 H         1 UNK         0.1020 
    135 H135      -51.7065  -31.1522   11.1596 H         1 UNK         0.0694 
    136 H136      -52.5787  -29.8543   11.9322 H         1 UNK         0.0694 
    137 H137      -48.5023  -26.7867   11.2978 H         1 UNK         0.2989 
    138 H138      -45.3738  -25.5116   12.4032 H         1 UNK         0.1055 
    139 H139      -44.9899  -27.9653   12.2230 H         1 UNK         0.0806 
    140 H140      -44.5574  -27.1642   10.7210 H         1 UNK         0.0806 
    141 H141      -46.0707  -28.0610   10.8401 H         1 UNK         0.0806 
    142 H142      -46.6533  -25.8518    9.8317 H         1 UNK         0.3061 
    143 H143      -48.3458  -22.7173    9.8126 H         1 UNK         0.0734 
    144 H144      -46.9293  -22.2720    7.8266 H         1 UNK         0.0832 
    145 H145      -45.9935  -22.0475    9.2941 H         1 UNK         0.0832 
    146 H146      -45.7743  -23.5052    8.3367 H         1 UNK         0.0832 
    147 H147      -47.9491  -24.6092    7.7473 H         1 UNK         0.3156 
    148 H148      -50.1576  -27.1281    8.6655 H         1 UNK         0.0589 
    149 H149      -50.9594  -24.8745    6.7442 H         1 UNK         0.0808 
    150 H150      -51.5539  -26.5327    6.6829 H         1 UNK         0.0808 
    151 H151      -51.9434  -25.5132    8.0569 H         1 UNK         0.0808 
    152 H152      -49.0948  -26.4562    6.1058 H         1 UNK         0.3098 
    153 H153      -46.4529  -26.6471    5.7732 H         1 UNK         0.0720 
    154 H154      -44.9383  -28.6158    5.6839 H         1 UNK         0.0791 
    155 H155      -45.9000  -29.4323    6.9178 H         1 UNK         0.0791 
    156 H156      -45.0183  -27.9627    7.3093 H         1 UNK         0.0791 
    157 H157      -47.2905  -29.2386    4.8707 H         1 UNK         0.3028 
@<TRIPOS>BOND
     1    1    2 1    
     2    1   82 1    
     3    1   83 1    
     4    1   84 1    
     5    2    3 2    
     6    2    4 am   BACKBONE|DICT|INTERRES
     7    4    5 1    
     8    4   85 1    
     9    5    6 1    
    10    5   80 1    
    11    5   86 1    
    12    6    7 1    
    13    6   87 1    
    14    6   88 1    
    15    7    8 1    
    16    8    9 1    
    17    8   89 1    
    18    8   90 1    
    19    9   10 ar   
    20    9   14 ar   
    21   10   11 ar   
    22   10   91 1    
    23   11   12 ar   
    24   11   58 1    
    25   12   13 ar   
    26   12   92 1    
    27   13   14 ar   
    28   13   15 1    
    29   14   93 1    
    30   15   16 1    
    31   15   94 1    
    32   15   95 1    
    33   16   17 1    
    34   17   18 1    
    35   17   96 1    
    36   17   97 1    
    37   18   19 1    
    38   18   22 1    
    39   18   98 1    
    40   19   20 am   BACKBONE|DICT|INTERRES
    41   19   21 2    
    42   20   99 1    
    43   20  100 1    
    44   22   23 am   BACKBONE|DICT|INTERRES
    45   22  101 1    
    46   23   24 2    
    47   23   25 1    
    48   25   26 1    
    49   25   27 1    
    50   25  102 1    
    51   26  103 1    
    52   26  104 1    
    53   26  105 1    
    54   27   28 am   BACKBONE|DICT|INTERRES
    55   27  106 1    
    56   28   29 2    
    57   28   30 1    
    58   30   31 1    
    59   30   32 1    
    60   30  107 1    
    61   31  108 1    
    62   31  109 1    
    63   31  110 1    
    64   32   33 am   BACKBONE|DICT|INTERRES
    65   32  111 1    
    66   33   34 2    
    67   33   35 1    
    68   35   36 1    
    69   35   37 1    
    70   35  112 1    
    71   36  113 1    
    72   36  114 1    
    73   36  115 1    
    74   37   38 am   BACKBONE|DICT|INTERRES
    75   37  116 1    
    76   38   39 2    
    77   38   40 1    
    78   40   41 1    
    79   40   42 1    
    80   40  117 1    
    81   41  118 1    
    82   41  119 1    
    83   41  120 1    
    84   42   43 am   BACKBONE|DICT|INTERRES
    85   42  121 1    
    86   43   44 2    
    87   43   45 1    
    88   45   46 1    
    89   45   47 1    
    90   45  122 1    
    91   46  123 1    
    92   46  124 1    
    93   46  125 1    
    94   47   48 am   BACKBONE|DICT|INTERRES
    95   47  126 1    
    96   48   49 2    
    97   48   50 1    
    98   50   51 1    
    99   50   52 1    
   100   50  127 1    
   101   51  128 1    
   102   51  129 1    
   103   51  130 1    
   104   52   53 am   BACKBONE|DICT|INTERRES
   105   52  131 1    
   106   53   54 2    
   107   53   55 1    
   108   55   56 1    
   109   55   59 1    
   110   55  132 1    
   111   56   57 1    
   112   56  133 1    
   113   56  134 1    
   114   57   58 1    
   115   58  135 1    
   116   58  136 1    
   117   59   60 am   BACKBONE|DICT|INTERRES
   118   59  137 1    
   119   60   61 2    
   120   60   62 1    
   121   62   63 1    
   122   62   64 1    
   123   62  138 1    
   124   63  139 1    
   125   63  140 1    
   126   63  141 1    
   127   64   65 am   BACKBONE|DICT|INTERRES
   128   64  142 1    
   129   65   66 2    
   130   65   67 1    
   131   67   68 1    
   132   67   69 1    
   133   67  143 1    
   134   68  144 1    
   135   68  145 1    
   136   68  146 1    
   137   69   70 am   BACKBONE|DICT|INTERRES
   138   69  147 1    
   139   70   71 2    
   140   70   72 1    
   141   72   73 1    
   142   72   74 1    
   143   72  148 1    
   144   73  149 1    
   145   73  150 1    
   146   73  151 1    
   147   74   75 am   BACKBONE|DICT|INTERRES
   148   74  152 1    
   149   75   76 2    
   150   75   77 1    
   151   77   78 1    
   152   77   79 1    
   153   77  153 1    
   154   78  154 1    
   155   78  155 1    
   156   78  156 1    
   157   79   80 am   BACKBONE|DICT|INTERRES
   158   79  157 1    
   159   80   81 2    
@<TRIPOS>SUBSTRUCTURE
     1 UNK         1 GROUP             0       ****    0 ROOT    
