@<TRIPOS>MOLECULE
3R207
157   159    1
SMALL
USER_CHARGES


@<TRIPOS>ATOM
      1 CA        -49.1283  -32.1337    5.7490 C.3       0 UNK        -0.1975 
      2 C         -48.6659  -31.0283    4.8116 C.2       0 UNK         0.4852 
      3 O         -47.6388  -31.1739    4.1489 O.2       0 UNK        -0.5216 
      4 N         -49.4186  -29.9217    4.7552 N.am      1 UNK        -0.4461 
      5 CA        -49.1756  -28.7622    3.8829 C.3       1 UNK         0.0864 
      6 C6        -50.3989  -27.8059    3.8163 C.3       14 UNK        -0.0898 
      7 S7        -52.0026  -28.6406    3.5465 S.3       14 UNK        -0.2598 
      8 C8        -53.0594  -27.8330    4.7995 C.3       14 UNK         0.0286 
      9 C9        -53.0928  -28.5737    6.1341 C.ar      14 UNK        -0.0844 
     10 C10       -51.9175  -28.8264    6.8499 C.ar      14 UNK        -0.0881 
     11 C11       -51.9509  -29.4922    8.0801 C.ar      14 UNK        -0.0643 
     12 C12       -53.1835  -29.8861    8.6044 C.ar      14 UNK        -0.0930 
     13 C13       -54.3717  -29.6003    7.9259 C.ar      14 UNK        -0.0827 
     14 C14       -54.3191  -28.9649    6.6823 C.ar      14 UNK        -0.1249 
     15 C15       -55.7115  -29.9387    8.5657 C.3       14 UNK         0.0141 
     16 S16       -56.5472  -28.4699    9.2651 S.3       14 UNK        -0.2313 
     17 C17       -55.2467  -27.7174   10.3028 C.3       14 UNK        -0.0915 
     18 CA        -55.1297  -28.3823   11.6996 C.3       13 UNK         0.0968 
     19 C         -53.6994  -28.1758   12.2779 C.2       13 UNK         0.5732 
     20 N         -53.4851  -27.3142   13.2631 N.am      13 UNK        -0.7310 
     21 O         -52.7607  -28.8140   11.8112 O.2       13 UNK        -0.5035 
     22 N         -56.2158  -27.9351   12.5820 N.am      13 UNK        -0.4233 
     23 C         -56.5615  -28.5344   13.7249 C.2       13 UNK         0.4989 
     24 O         -56.1044  -29.6118   14.1130 O.2       13 UNK        -0.4996 
     25 CA        -57.5685  -27.7749   14.6067 C.3       12 UNK         0.0216 
     26 CB        -58.8298  -28.6176   14.8614 C.3       12 UNK        -0.1964 
     27 N         -56.9653  -27.3944   15.8871 N.am      12 UNK        -0.4276 
     28 C         -55.8880  -26.6089   16.0213 C.2       12 UNK         0.5020 
     29 O         -55.3283  -26.0436   15.0751 O.2       12 UNK        -0.5489 
     30 CA        -55.3326  -26.4413   17.4418 C.3       11 UNK         0.0294 
     31 CB        -54.8850  -27.7903   18.0407 C.3       11 UNK        -0.2019 
     32 N         -54.1902  -25.5362   17.3832 N.am      11 UNK        -0.4493 
     33 C         -53.7162  -24.7930   18.3869 C.2       11 UNK         0.4932 
     34 O         -54.2276  -24.7496   19.5078 O.2       11 UNK        -0.5029 
     35 CA        -52.4419  -23.9825   18.0747 C.3       10 UNK         0.0280 
     36 CB        -51.8477  -23.2867   19.3176 C.3       10 UNK        -0.1976 
     37 N         -51.4148  -24.7810   17.3908 N.am      10 UNK        -0.4242 
     38 C         -50.8418  -25.9178   17.8289 C.2       10 UNK         0.5072 
     39 O         -51.1150  -26.4613   18.9001 O.2       10 UNK        -0.5224 
     40 CA        -49.7744  -26.5723   16.9280 C.3       9 UNK         0.0343 
     41 CB        -50.3898  -27.7392   16.1390 C.3       9 UNK        -0.2003 
     42 N         -49.1412  -25.6333   15.9984 N.am      9 UNK        -0.4272 
     43 C         -48.3516  -24.6148   16.3745 C.2       9 UNK         0.4988 
     44 O         -47.9657  -24.4509   17.5329 O.2       9 UNK        -0.5108 
     45 CA        -47.9404  -23.5788   15.3090 C.3       8 UNK         0.0248 
     46 CB        -46.4425  -23.7065   14.9873 C.3       8 UNK        -0.2001 
     47 N         -48.7201  -23.6157   14.0645 N.am      8 UNK        -0.4140 
     48 C         -50.0448  -23.4188   13.9724 C.2       8 UNK         0.5028 
     49 O         -50.7706  -23.1865   14.9412 O.2       8 UNK        -0.5428 
     50 CA        -50.6786  -23.5576   12.5776 C.3       7 UNK         0.0264 
     51 CB        -50.5572  -22.2397   11.7970 C.3       7 UNK        -0.1988 
     52 N         -50.1149  -24.6552   11.7844 N.am      7 UNK        -0.4454 
     53 C         -50.1681  -25.9526   12.1271 C.2       7 UNK         0.5027 
     54 O         -50.7080  -26.3602   13.1563 O.2       7 UNK        -0.5083 
     55 CA        -49.4433  -26.9525   11.2012 C.3       6 UNK         0.0844 
     56 C56       -50.2414  -27.2044    9.8975 C.3       14 UNK        -0.0967 
     57 S57       -49.4490  -28.4574    8.8300 S.3       14 UNK        -0.2604 
     58 C58       -50.6713  -29.8079    8.8508 C.3       14 UNK         0.0134 
     59 N         -48.0678  -26.5185   10.9428 N.am      6 UNK        -0.4116 
     60 C         -47.1142  -26.3793   11.8744 C.2       5 UNK         0.5034 
     61 O         -47.2510  -26.6921   13.0571 O.2       5 UNK        -0.5045 
     62 CA        -45.7930  -25.7443   11.4155 C.3       5 UNK         0.0224 
     63 CB        -44.8305  -26.8130   10.8728 C.3       5 UNK        -0.1978 
     64 N         -46.0066  -24.7067   10.4032 N.am      5 UNK        -0.4737 
     65 C         -46.5326  -23.5009   10.6575 C.2       4 UNK         0.5027 
     66 O         -46.8676  -23.1263   11.7802 O.2       4 UNK        -0.5211 
     67 CA        -46.7564  -22.5705    9.4529 C.3       4 UNK         0.0297 
     68 CB        -45.4497  -21.8593    9.0676 C.3       4 UNK        -0.1993 
     69 N         -47.3033  -23.2666    8.2851 N.am      4 UNK        -0.4486 
     70 C         -48.5194  -23.8275    8.2474 C.2       3 UNK         0.4961 
     71 O         -49.3166  -23.7973    9.1842 O.2       3 UNK        -0.5105 
     72 CA        -48.9059  -24.5858    6.9662 C.3       3 UNK         0.0299 
     73 CB        -49.4672  -23.6163    5.9146 C.3       3 UNK        -0.1972 
     74 N         -47.8543  -25.4112    6.3577 N.am      3 UNK        -0.4305 
     75 C         -47.0643  -26.2940    6.9877 C.2       2 UNK         0.5006 
     76 O         -46.9503  -26.3694    8.2106 O.2       2 UNK        -0.5106 
     77 CA        -46.3495  -27.3159    6.0904 C.3       2 UNK         0.0296 
     78 CB        -45.3749  -28.2137    6.8761 C.3       2 UNK        -0.2002 
     79 N         -47.3717  -28.1559    5.4654 N.am      2 UNK        -0.4032 
     80 C         -47.9202  -27.9407    4.2616 C.2       1 UNK         0.5000 
     81 O         -47.5134  -27.0760    3.4831 O.2       1 UNK        -0.5238 
     82 H82       -48.4258  -32.2441    6.5747 H         1 UNK         0.0889 
     83 H83       -49.1790  -33.0821    5.2148 H         1 UNK         0.0889 
     84 H84       -50.1149  -31.9291    6.1648 H         1 UNK         0.0889 
     85 H85       -50.2833  -29.8928    5.2760 H         1 UNK         0.3028 
     86 H86       -49.0016  -29.1513    2.8773 H         1 UNK         0.0864 
     87 H87       -50.2667  -27.0959    2.9974 H         1 UNK         0.0720 
     88 H88       -50.4572  -27.1943    4.7182 H         1 UNK         0.0720 
     89 H89       -54.0664  -27.7676    4.3847 H         1 UNK         0.0814 
     90 H90       -52.7402  -26.8026    4.9612 H         1 UNK         0.0814 
     91 H91       -50.9703  -28.4926    6.4603 H         1 UNK         0.1469 
     92 H92       -53.2209  -30.3827    9.5646 H         1 UNK         0.1381 
     93 H93       -55.2405  -28.7460    6.1597 H         1 UNK         0.1206 
     94 H94       -55.5831  -30.6825    9.3534 H         1 UNK         0.0813 
     95 H95       -56.3648  -30.3964    7.8216 H         1 UNK         0.0813 
     96 H96       -55.4748  -26.6558   10.4115 H         1 UNK         0.0638 
     97 H97       -54.3028  -27.7345    9.7590 H         1 UNK         0.0638 
     98 H98       -55.2340  -29.4614   11.5724 H         1 UNK         0.0568 
     99 H99       -54.2428  -26.8117   13.7157 H         1 UNK         0.3450 
    100 H100      -52.5264  -27.1447   13.5407 H         1 UNK         0.3450 
    101 H101      -56.6264  -27.0418   12.3555 H         1 UNK         0.2987 
    102 H102      -57.8710  -26.8577   14.0966 H         1 UNK         0.0766 
    103 H103      -59.5698  -28.0625   15.4384 H         1 UNK         0.0798 
    104 H104      -58.6011  -29.5365   15.4031 H         1 UNK         0.0798 
    105 H105      -59.3026  -28.9040   13.9209 H         1 UNK         0.0798 
    106 H106      -57.3483  -27.8340   16.7114 H         1 UNK         0.3198 
    107 H107      -56.1154  -25.9991   18.0619 H         1 UNK         0.0843 
    108 H108      -54.4522  -27.6604   19.0329 H         1 UNK         0.0831 
    109 H109      -54.1357  -28.2767   17.4143 H         1 UNK         0.0831 
    110 H110      -55.7220  -28.4807   18.1470 H         1 UNK         0.0831 
    111 H111      -53.7775  -25.4585   16.4612 H         1 UNK         0.3133 
    112 H112      -52.7386  -23.2026   17.3718 H         1 UNK         0.0566 
    113 H113      -50.9664  -22.6996   19.0589 H         1 UNK         0.0814 
    114 H114      -52.5707  -22.6052   19.7673 H         1 UNK         0.0814 
    115 H115      -51.5577  -24.0058   20.0845 H         1 UNK         0.0814 
    116 H116      -51.1132  -24.4086   16.4936 H         1 UNK         0.3091 
    117 H117      -48.9940  -26.9741   17.5776 H         1 UNK         0.0702 
    118 H118      -51.2343  -27.4134   15.5311 H         1 UNK         0.0785 
    119 H119      -50.7587  -28.5122   16.8143 H         1 UNK         0.0785 
    120 H120      -49.6591  -28.2055   15.4777 H         1 UNK         0.0785 
    121 H121      -49.4032  -25.7127   15.0235 H         1 UNK         0.2998 
    122 H122      -48.1036  -22.5954   15.7542 H         1 UNK         0.0697 
    123 H123      -46.1061  -22.9054   14.3294 H         1 UNK         0.0825 
    124 H124      -45.8397  -23.6481   15.8947 H         1 UNK         0.0825 
    125 H125      -46.2144  -24.6578   14.5077 H         1 UNK         0.0825 
    126 H126      -48.1908  -23.7416   13.2070 H         1 UNK         0.3029 
    127 H127      -51.7397  -23.7718   12.7227 H         1 UNK         0.0897 
    128 H128      -51.0914  -22.2913   10.8480 H         1 UNK         0.0792 
    129 H129      -50.9805  -21.4085   12.3627 H         1 UNK         0.0792 
    130 H130      -49.5167  -21.9938   11.5807 H         1 UNK         0.0792 
    131 H131      -49.6784  -24.3948   10.9013 H         1 UNK         0.3086 
    132 H132      -49.3849  -27.9008   11.7400 H         1 UNK         0.0583 
    133 H133      -51.2593  -27.5210   10.1285 H         1 UNK         0.1020 
    134 H134      -50.3439  -26.2844    9.3221 H         1 UNK         0.1020 
    135 H135      -50.2145  -30.6964    8.4144 H         1 UNK         0.0694 
    136 H136      -50.8956  -30.0548    9.8901 H         1 UNK         0.0694 
    137 H137      -47.8293  -26.3084    9.9780 H         1 UNK         0.2989 
    138 H138      -45.3275  -25.2791   12.2870 H         1 UNK         0.1055 
    139 H139      -44.6182  -27.5653   11.6337 H         1 UNK         0.0806 
    140 H140      -43.8775  -26.3753   10.5756 H         1 UNK         0.0806 
    141 H141      -45.2448  -27.3343   10.0093 H         1 UNK         0.0806 
    142 H142      -45.8766  -24.9853    9.4381 H         1 UNK         0.3061 
    143 H143      -47.4794  -21.8099    9.7561 H         1 UNK         0.0734 
    144 H144      -45.6134  -21.1298    8.2742 H         1 UNK         0.0832 
    145 H145      -45.0351  -21.3198    9.9205 H         1 UNK         0.0832 
    146 H146      -44.6891  -22.5630    8.7270 H         1 UNK         0.0832 
    147 H147      -46.7077  -23.3557    7.4747 H         1 UNK         0.3156 
    148 H148      -49.7083  -25.2737    7.2384 H         1 UNK         0.0589 
    149 H149      -48.6995  -22.9384    5.5395 H         1 UNK         0.0808 
    150 H150      -49.8881  -24.1521    5.0634 H         1 UNK         0.0808 
    151 H151      -50.2665  -23.0035    6.3345 H         1 UNK         0.0808 
    152 H152      -47.8439  -25.4319    5.3469 H         1 UNK         0.3098 
    153 H153      -45.7791  -26.7701    5.3360 H         1 UNK         0.0720 
    154 H154      -45.8847  -28.7819    7.6558 H         1 UNK         0.0791 
    155 H155      -44.6001  -27.6177    7.3602 H         1 UNK         0.0791 
    156 H156      -44.8747  -28.9243    6.2180 H         1 UNK         0.0791 
    157 H157      -47.7926  -28.8585    6.0562 H         1 UNK         0.3028 
@<TRIPOS>BOND
     1    1    2 1    
     2    1   82 1    
     3    1   83 1    
     4    1   84 1    
     5    2    3 2    
     6    2    4 am   BACKBONE|DICT|INTERRES
     7    4    5 1    
     8    4   85 1    
     9    5    6 1    
    10    5   80 1    
    11    5   86 1    
    12    6    7 1    
    13    6   87 1    
    14    6   88 1    
    15    7    8 1    
    16    8    9 1    
    17    8   89 1    
    18    8   90 1    
    19    9   10 ar   
    20    9   14 ar   
    21   10   11 ar   
    22   10   91 1    
    23   11   12 ar   
    24   11   58 1    
    25   12   13 ar   
    26   12   92 1    
    27   13   14 ar   
    28   13   15 1    
    29   14   93 1    
    30   15   16 1    
    31   15   94 1    
    32   15   95 1    
    33   16   17 1    
    34   17   18 1    
    35   17   96 1    
    36   17   97 1    
    37   18   19 1    
    38   18   22 1    
    39   18   98 1    
    40   19   20 am   BACKBONE|DICT|INTERRES
    41   19   21 2    
    42   20   99 1    
    43   20  100 1    
    44   22   23 am   BACKBONE|DICT|INTERRES
    45   22  101 1    
    46   23   24 2    
    47   23   25 1    
    48   25   26 1    
    49   25   27 1    
    50   25  102 1    
    51   26  103 1    
    52   26  104 1    
    53   26  105 1    
    54   27   28 am   BACKBONE|DICT|INTERRES
    55   27  106 1    
    56   28   29 2    
    57   28   30 1    
    58   30   31 1    
    59   30   32 1    
    60   30  107 1    
    61   31  108 1    
    62   31  109 1    
    63   31  110 1    
    64   32   33 am   BACKBONE|DICT|INTERRES
    65   32  111 1    
    66   33   34 2    
    67   33   35 1    
    68   35   36 1    
    69   35   37 1    
    70   35  112 1    
    71   36  113 1    
    72   36  114 1    
    73   36  115 1    
    74   37   38 am   BACKBONE|DICT|INTERRES
    75   37  116 1    
    76   38   39 2    
    77   38   40 1    
    78   40   41 1    
    79   40   42 1    
    80   40  117 1    
    81   41  118 1    
    82   41  119 1    
    83   41  120 1    
    84   42   43 am   BACKBONE|DICT|INTERRES
    85   42  121 1    
    86   43   44 2    
    87   43   45 1    
    88   45   46 1    
    89   45   47 1    
    90   45  122 1    
    91   46  123 1    
    92   46  124 1    
    93   46  125 1    
    94   47   48 am   BACKBONE|DICT|INTERRES
    95   47  126 1    
    96   48   49 2    
    97   48   50 1    
    98   50   51 1    
    99   50   52 1    
   100   50  127 1    
   101   51  128 1    
   102   51  129 1    
   103   51  130 1    
   104   52   53 am   BACKBONE|DICT|INTERRES
   105   52  131 1    
   106   53   54 2    
   107   53   55 1    
   108   55   56 1    
   109   55   59 1    
   110   55  132 1    
   111   56   57 1    
   112   56  133 1    
   113   56  134 1    
   114   57   58 1    
   115   58  135 1    
   116   58  136 1    
   117   59   60 am   BACKBONE|DICT|INTERRES
   118   59  137 1    
   119   60   61 2    
   120   60   62 1    
   121   62   63 1    
   122   62   64 1    
   123   62  138 1    
   124   63  139 1    
   125   63  140 1    
   126   63  141 1    
   127   64   65 am   BACKBONE|DICT|INTERRES
   128   64  142 1    
   129   65   66 2    
   130   65   67 1    
   131   67   68 1    
   132   67   69 1    
   133   67  143 1    
   134   68  144 1    
   135   68  145 1    
   136   68  146 1    
   137   69   70 am   BACKBONE|DICT|INTERRES
   138   69  147 1    
   139   70   71 2    
   140   70   72 1    
   141   72   73 1    
   142   72   74 1    
   143   72  148 1    
   144   73  149 1    
   145   73  150 1    
   146   73  151 1    
   147   74   75 am   BACKBONE|DICT|INTERRES
   148   74  152 1    
   149   75   76 2    
   150   75   77 1    
   151   77   78 1    
   152   77   79 1    
   153   77  153 1    
   154   78  154 1    
   155   78  155 1    
   156   78  156 1    
   157   79   80 am   BACKBONE|DICT|INTERRES
   158   79  157 1    
   159   80   81 2    
@<TRIPOS>SUBSTRUCTURE
     1 UNK         1 GROUP             0       ****    0 ROOT    
