@<TRIPOS>MOLECULE
3R207
157   159    1
SMALL
USER_CHARGES


@<TRIPOS>ATOM
      1 CA        -47.1726  -26.5900    2.8695 C.3       0 UNK        -0.1975 
      2 C         -48.5320  -25.9421    3.0885 C.2       0 UNK         0.4852 
      3 O         -48.7405  -24.8006    2.6741 O.2       0 UNK        -0.5216 
      4 N         -49.4583  -26.6662    3.7282 N.am      1 UNK        -0.4461 
      5 CA        -50.7840  -26.1815    4.1237 C.3       1 UNK         0.0864 
      6 C6        -51.7601  -27.3575    4.3998 C.3       14 UNK        -0.0898 
      7 S7        -51.1490  -28.6103    5.5856 S.3       14 UNK        -0.2598 
      8 C8        -52.2590  -28.3385    6.9996 C.3       14 UNK         0.0286 
      9 C9        -52.0335  -29.3773    8.0881 C.ar      14 UNK        -0.0844 
     10 C10       -51.0531  -29.1712    9.0618 C.ar      14 UNK        -0.0881 
     11 C11       -50.8336  -30.1206   10.0630 C.ar      14 UNK        -0.0643 
     12 C12       -51.6087  -31.2811   10.0908 C.ar      14 UNK        -0.0930 
     13 C13       -52.6118  -31.4886    9.1400 C.ar      14 UNK        -0.0827 
     14 C14       -52.8135  -30.5375    8.1346 C.ar      14 UNK        -0.1249 
     15 C15       -53.4684  -32.7454    9.1941 C.3       14 UNK         0.0141 
     16 S16       -55.0334  -32.4734   10.0884 S.3       14 UNK        -0.2313 
     17 C17       -54.4665  -32.2571   11.8132 C.3       14 UNK        -0.0915 
     18 CA        -54.7873  -30.8537   12.3961 C.3       13 UNK         0.0968 
     19 C         -54.3203  -30.7345   13.8769 C.2       13 UNK         0.5732 
     20 N         -53.4562  -29.7925   14.2362 N.am      13 UNK        -0.7310 
     21 O         -54.7620  -31.5101   14.7216 O.2       13 UNK        -0.5035 
     22 N         -54.3263  -29.7624   11.5222 N.am      13 UNK        -0.4233 
     23 C         -54.8700  -28.5411   11.5027 C.2       13 UNK         0.4989 
     24 O         -55.8306  -28.2025   12.1996 O.2       13 UNK        -0.4996 
     25 CA        -54.2833  -27.5545   10.4793 C.3       12 UNK         0.0216 
     26 CB        -55.0134  -27.7155    9.1349 C.3       12 UNK        -0.1964 
     27 N         -54.4033  -26.1591   10.9045 N.am      12 UNK        -0.4276 
     28 C         -53.8590  -25.6281   12.0051 C.2       12 UNK         0.5020 
     29 O         -53.1172  -26.2360   12.7818 O.2       12 UNK        -0.5489 
     30 CA        -54.2278  -24.1683   12.2935 C.3       11 UNK         0.0294 
     31 CB        -55.6907  -24.0574   12.7707 C.3       11 UNK        -0.2019 
     32 N         -53.3234  -23.6629   13.3198 N.am      11 UNK        -0.4493 
     33 C         -53.1397  -22.3824   13.6581 C.2       11 UNK         0.4932 
     34 O         -53.7190  -21.4488   13.1006 O.2       11 UNK        -0.5029 
     35 CA        -52.1250  -22.0742   14.7801 C.3       10 UNK         0.0280 
     36 CB        -52.6031  -20.9325   15.7020 C.3       10 UNK        -0.1976 
     37 N         -51.6991  -23.2377   15.5707 N.am      10 UNK        -0.4242 
     38 C         -52.4500  -24.0217   16.3633 C.2       10 UNK         0.5072 
     39 O         -53.6574  -23.8599   16.5433 O.2       10 UNK        -0.5224 
     40 CA        -51.7504  -25.2022   17.0648 C.3       9 UNK         0.0343 
     41 CB        -52.1741  -26.5337   16.4203 C.3       9 UNK        -0.2003 
     42 N         -50.2885  -25.0976   17.0377 N.am      9 UNK        -0.4272 
     43 C         -49.5689  -24.3367   17.8777 C.2       9 UNK         0.4988 
     44 O         -50.0596  -23.7159   18.8213 O.2       9 UNK        -0.5108 
     45 CA        -48.0509  -24.2235   17.6243 C.3       8 UNK         0.0248 
     46 CB        -47.2844  -25.2136   18.5162 C.3       8 UNK        -0.2001 
     47 N         -47.6563  -24.4296   16.2270 N.am      8 UNK        -0.4140 
     48 C         -48.0608  -23.6817   15.1904 C.2       8 UNK         0.5028 
     49 O         -48.7610  -22.6766   15.3079 O.2       8 UNK        -0.5428 
     50 CA        -47.6819  -24.1614   13.7778 C.3       7 UNK         0.0264 
     51 CB        -46.4260  -23.4315   13.2774 C.3       7 UNK        -0.1988 
     52 N         -47.4883  -25.6091   13.6272 N.am      7 UNK        -0.4454 
     53 C         -48.3409  -26.5819   13.9915 C.2       7 UNK         0.5027 
     54 O         -49.3862  -26.3709   14.6068 O.2       7 UNK        -0.5083 
     55 CA        -47.9141  -28.0255   13.6563 C.3       6 UNK         0.0844 
     56 C56       -49.0554  -29.0790   13.7215 C.3       14 UNK        -0.0967 
     57 S57       -50.3969  -28.9004   12.4920 S.3       14 UNK        -0.2604 
     58 C58       -49.7599  -29.9004   11.1147 C.3       14 UNK         0.0134 
     59 N         -47.1780  -28.0618   12.3881 N.am      6 UNK        -0.4116 
     60 C         -45.8895  -28.4056   12.2509 C.2       5 UNK         0.5034 
     61 O         -45.1682  -28.7137   13.2005 O.2       5 UNK        -0.5045 
     62 CA        -45.2777  -28.4255   10.8361 C.3       5 UNK         0.0224 
     63 CB        -44.7502  -29.8309   10.4965 C.3       5 UNK        -0.1978 
     64 N         -46.2044  -28.0154    9.7800 N.am      5 UNK        -0.4737 
     65 C         -46.4130  -26.7575    9.3716 C.2       4 UNK         0.5027 
     66 O         -45.8436  -25.7777    9.8539 O.2       4 UNK        -0.5211 
     67 CA        -47.4374  -26.5606    8.2319 C.3       4 UNK         0.0297 
     68 CB        -47.8290  -27.8682    7.5098 C.3       4 UNK        -0.1993 
     69 N         -48.6539  -25.8248    8.6103 N.am      4 UNK        -0.4486 
     70 C         -49.3209  -25.8412    9.7779 C.2       3 UNK         0.4961 
     71 O         -48.9786  -26.5165   10.7445 O.2       3 UNK        -0.5105 
     72 CA        -50.5973  -24.9866    9.9029 C.3       3 UNK         0.0299 
     73 CB        -50.5212  -24.0446   11.1150 C.3       3 UNK        -0.1972 
     74 N         -50.8559  -24.1923    8.7009 N.am      3 UNK        -0.4305 
     75 C         -51.9726  -24.2504    7.9660 C.2       2 UNK         0.5006 
     76 O         -52.9703  -24.9022    8.2719 O.2       2 UNK        -0.5106 
     77 CA        -51.9751  -23.4835    6.6309 C.3       2 UNK         0.0296 
     78 CB        -50.9860  -22.2956    6.5793 C.3       2 UNK        -0.2002 
     79 N         -51.7628  -24.4044    5.5064 N.am      2 UNK        -0.4032 
     80 C         -50.6987  -25.2007    5.3137 C.2       1 UNK         0.5000 
     81 O         -49.7009  -25.1953    6.0413 O.2       1 UNK        -0.5238 
     82 H82       -47.1315  -27.5991    3.2795 H         1 UNK         0.0889 
     83 H83       -46.3943  -25.9977    3.3498 H         1 UNK         0.0889 
     84 H84       -46.9506  -26.6470    1.8042 H         1 UNK         0.0889 
     85 H85       -49.2262  -27.5873    4.0714 H         1 UNK         0.3028 
     86 H86       -51.1865  -25.6151    3.2808 H         1 UNK         0.0864 
     87 H87       -52.7356  -26.9870    4.7198 H         1 UNK         0.0720 
     88 H88       -51.9523  -27.8798    3.4613 H         1 UNK         0.0720 
     89 H89       -52.0973  -27.3369    7.3999 H         1 UNK         0.0814 
     90 H90       -53.2945  -28.3752    6.6584 H         1 UNK         0.0814 
     91 H91       -50.4608  -28.2700    9.0403 H         1 UNK         0.1469 
     92 H92       -51.4309  -32.0193   10.8603 H         1 UNK         0.1381 
     93 H93       -53.5813  -30.6993    7.3901 H         1 UNK         0.1206 
     94 H94       -53.6979  -33.0739    8.1793 H         1 UNK         0.0813 
     95 H95       -52.9200  -33.5661    9.6592 H         1 UNK         0.0813 
     96 H96       -53.4011  -32.4707   11.8877 H         1 UNK         0.0638 
     97 H97       -54.9596  -33.0274   12.4089 H         1 UNK         0.0638 
     98 H98       -55.8761  -30.7859   12.4386 H         1 UNK         0.0568 
     99 H99       -53.1701  -29.7303   15.1992 H         1 UNK         0.3450 
    100 H100      -53.0861  -29.1444   13.5571 H         1 UNK         0.3450 
    101 H101      -53.5584  -29.9824   10.9023 H         1 UNK         0.2987 
    102 H102      -53.2217  -27.7713   10.3471 H         1 UNK         0.0766 
    103 H103      -54.5885  -27.0668    8.3697 H         1 UNK         0.0798 
    104 H104      -56.0742  -27.4771    9.2229 H         1 UNK         0.0798 
    105 H105      -54.9449  -28.7402    8.7689 H         1 UNK         0.0798 
    106 H106      -54.9864  -25.5719   10.3267 H         1 UNK         0.3198 
    107 H107      -54.0864  -23.5876   11.3792 H         1 UNK         0.0843 
    108 H108      -55.8506  -24.6144   13.6949 H         1 UNK         0.0831 
    109 H109      -56.3828  -24.4544   12.0274 H         1 UNK         0.0831 
    110 H110      -55.9779  -23.0217   12.9518 H         1 UNK         0.0831 
    111 H111      -52.7931  -24.3925   13.7826 H         1 UNK         0.3133 
    112 H112      -51.2255  -21.7248   14.2714 H         1 UNK         0.0566 
    113 H113      -51.8630  -20.7076   16.4700 H         1 UNK         0.0814 
    114 H114      -52.7692  -20.0144   15.1372 H         1 UNK         0.0814 
    115 H115      -53.5408  -21.1800   16.2003 H         1 UNK         0.0814 
    116 H116      -50.7045  -23.4303   15.5238 H         1 UNK         0.3091 
    117 H117      -52.0838  -25.2105   18.1046 H         1 UNK         0.0702 
    118 H118      -51.6979  -27.3831   16.9098 H         1 UNK         0.0785 
    119 H119      -51.9187  -26.5714   15.3603 H         1 UNK         0.0785 
    120 H120      -53.2527  -26.6779   16.4954 H         1 UNK         0.0785 
    121 H121      -49.8230  -25.5722   16.2665 H         1 UNK         0.2998 
    122 H122      -47.7519  -23.2105   17.9015 H         1 UNK         0.0697 
    123 H123      -47.5225  -26.2487   18.2681 H         1 UNK         0.0825 
    124 H124      -47.5344  -25.0654   19.5679 H         1 UNK         0.0825 
    125 H125      -46.2062  -25.0830   18.4212 H         1 UNK         0.0825 
    126 H126      -47.0883  -25.2404   16.0301 H         1 UNK         0.3029 
    127 H127      -48.5108  -23.8861   13.1271 H         1 UNK         0.0897 
    128 H128      -46.2212  -23.6660   12.2321 H         1 UNK         0.0792 
    129 H129      -46.5487  -22.3495   13.3460 H         1 UNK         0.0792 
    130 H130      -45.5444  -23.6979   13.8618 H         1 UNK         0.0792 
    131 H131      -46.6590  -25.8921   13.1257 H         1 UNK         0.3086 
    132 H132      -47.2345  -28.2843   14.4702 H         1 UNK         0.0583 
    133 H133      -48.6284  -30.0788   13.6342 H         1 UNK         0.1020 
    134 H134      -49.5170  -29.0570   14.7104 H         1 UNK         0.1020 
    135 H135      -48.9011  -29.4010   10.6663 H         1 UNK         0.0694 
    136 H136      -49.4010  -30.8596   11.4906 H         1 UNK         0.0694 
    137 H137      -47.7020  -27.7199   11.5854 H         1 UNK         0.2989 
    138 H138      -44.4281  -27.7389   10.8497 H         1 UNK         0.1055 
    139 H139      -44.0074  -30.1598   11.2249 H         1 UNK         0.0806 
    140 H140      -44.2675  -29.8484    9.5191 H         1 UNK         0.0806 
    141 H141      -45.5500  -30.5726   10.4903 H         1 UNK         0.0806 
    142 H142      -46.7275  -28.7520    9.3292 H         1 UNK         0.3061 
    143 H143      -46.9347  -25.9316    7.4957 H         1 UNK         0.0734 
    144 H144      -48.4709  -27.6601    6.6542 H         1 UNK         0.0832 
    145 H145      -46.9500  -28.3857    7.1230 H         1 UNK         0.0832 
    146 H146      -48.3639  -28.5587    8.1601 H         1 UNK         0.0832 
    147 H147      -49.0745  -25.3224    7.8324 H         1 UNK         0.3156 
    148 H148      -51.4142  -25.6909   10.0727 H         1 UNK         0.0589 
    149 H149      -49.6463  -23.3958   11.0664 H         1 UNK         0.0808 
    150 H150      -50.4677  -24.6166   12.0427 H         1 UNK         0.0808 
    151 H151      -51.4042  -23.4097   11.1781 H         1 UNK         0.0808 
    152 H152      -50.0921  -23.6253    8.3605 H         1 UNK         0.3098 
    153 H153      -52.9806  -23.0755    6.5155 H         1 UNK         0.0720 
    154 H154      -49.9426  -22.6100    6.6079 H         1 UNK         0.0791 
    155 H155      -51.1496  -21.6128    7.4143 H         1 UNK         0.0791 
    156 H156      -51.1241  -21.7180    5.6652 H         1 UNK         0.0791 
    157 H157      -52.5446  -24.4919    4.8720 H         1 UNK         0.3028 
@<TRIPOS>BOND
     1    1    2 1    
     2    1   82 1    
     3    1   83 1    
     4    1   84 1    
     5    2    3 2    
     6    2    4 am   BACKBONE|DICT|INTERRES
     7    4    5 1    
     8    4   85 1    
     9    5    6 1    
    10    5   80 1    
    11    5   86 1    
    12    6    7 1    
    13    6   87 1    
    14    6   88 1    
    15    7    8 1    
    16    8    9 1    
    17    8   89 1    
    18    8   90 1    
    19    9   10 ar   
    20    9   14 ar   
    21   10   11 ar   
    22   10   91 1    
    23   11   12 ar   
    24   11   58 1    
    25   12   13 ar   
    26   12   92 1    
    27   13   14 ar   
    28   13   15 1    
    29   14   93 1    
    30   15   16 1    
    31   15   94 1    
    32   15   95 1    
    33   16   17 1    
    34   17   18 1    
    35   17   96 1    
    36   17   97 1    
    37   18   19 1    
    38   18   22 1    
    39   18   98 1    
    40   19   20 am   BACKBONE|DICT|INTERRES
    41   19   21 2    
    42   20   99 1    
    43   20  100 1    
    44   22   23 am   BACKBONE|DICT|INTERRES
    45   22  101 1    
    46   23   24 2    
    47   23   25 1    
    48   25   26 1    
    49   25   27 1    
    50   25  102 1    
    51   26  103 1    
    52   26  104 1    
    53   26  105 1    
    54   27   28 am   BACKBONE|DICT|INTERRES
    55   27  106 1    
    56   28   29 2    
    57   28   30 1    
    58   30   31 1    
    59   30   32 1    
    60   30  107 1    
    61   31  108 1    
    62   31  109 1    
    63   31  110 1    
    64   32   33 am   BACKBONE|DICT|INTERRES
    65   32  111 1    
    66   33   34 2    
    67   33   35 1    
    68   35   36 1    
    69   35   37 1    
    70   35  112 1    
    71   36  113 1    
    72   36  114 1    
    73   36  115 1    
    74   37   38 am   BACKBONE|DICT|INTERRES
    75   37  116 1    
    76   38   39 2    
    77   38   40 1    
    78   40   41 1    
    79   40   42 1    
    80   40  117 1    
    81   41  118 1    
    82   41  119 1    
    83   41  120 1    
    84   42   43 am   BACKBONE|DICT|INTERRES
    85   42  121 1    
    86   43   44 2    
    87   43   45 1    
    88   45   46 1    
    89   45   47 1    
    90   45  122 1    
    91   46  123 1    
    92   46  124 1    
    93   46  125 1    
    94   47   48 am   BACKBONE|DICT|INTERRES
    95   47  126 1    
    96   48   49 2    
    97   48   50 1    
    98   50   51 1    
    99   50   52 1    
   100   50  127 1    
   101   51  128 1    
   102   51  129 1    
   103   51  130 1    
   104   52   53 am   BACKBONE|DICT|INTERRES
   105   52  131 1    
   106   53   54 2    
   107   53   55 1    
   108   55   56 1    
   109   55   59 1    
   110   55  132 1    
   111   56   57 1    
   112   56  133 1    
   113   56  134 1    
   114   57   58 1    
   115   58  135 1    
   116   58  136 1    
   117   59   60 am   BACKBONE|DICT|INTERRES
   118   59  137 1    
   119   60   61 2    
   120   60   62 1    
   121   62   63 1    
   122   62   64 1    
   123   62  138 1    
   124   63  139 1    
   125   63  140 1    
   126   63  141 1    
   127   64   65 am   BACKBONE|DICT|INTERRES
   128   64  142 1    
   129   65   66 2    
   130   65   67 1    
   131   67   68 1    
   132   67   69 1    
   133   67  143 1    
   134   68  144 1    
   135   68  145 1    
   136   68  146 1    
   137   69   70 am   BACKBONE|DICT|INTERRES
   138   69  147 1    
   139   70   71 2    
   140   70   72 1    
   141   72   73 1    
   142   72   74 1    
   143   72  148 1    
   144   73  149 1    
   145   73  150 1    
   146   73  151 1    
   147   74   75 am   BACKBONE|DICT|INTERRES
   148   74  152 1    
   149   75   76 2    
   150   75   77 1    
   151   77   78 1    
   152   77   79 1    
   153   77  153 1    
   154   78  154 1    
   155   78  155 1    
   156   78  156 1    
   157   79   80 am   BACKBONE|DICT|INTERRES
   158   79  157 1    
   159   80   81 2    
@<TRIPOS>SUBSTRUCTURE
     1 UNK         1 GROUP             0       ****    0 ROOT    
