@<TRIPOS>MOLECULE
3R207
157   159    1
SMALL
USER_CHARGES


@<TRIPOS>ATOM
      1 CA        -50.4591  -32.9852    8.8772 C.3       0 UNK        -0.1975 
      2 C         -49.7731  -31.7520    8.3074 C.2       0 UNK         0.4852 
      3 O         -48.9430  -31.8806    7.4056 O.2       0 UNK        -0.5216 
      4 N         -50.1175  -30.5627    8.8173 N.am      1 UNK        -0.4461 
      5 CA        -49.4987  -29.2866    8.4404 C.3       1 UNK         0.0864 
      6 C6        -50.4624  -28.0908    8.6791 C.3       14 UNK        -0.0898 
      7 S7        -50.3654  -26.8428    7.3494 S.3       14 UNK        -0.2598 
      8 C8        -51.8907  -27.1823    6.4077 C.3       14 UNK         0.0286 
      9 C9        -53.1149  -26.6210    7.1162 C.ar      14 UNK        -0.0844 
     10 C10       -53.4472  -25.2714    6.9744 C.ar      14 UNK        -0.0881 
     11 C11       -54.5233  -24.7222    7.6822 C.ar      14 UNK        -0.0643 
     12 C12       -55.2886  -25.5494    8.5095 C.ar      14 UNK        -0.0930 
     13 C13       -54.9862  -26.9082    8.6343 C.ar      14 UNK        -0.0827 
     14 C14       -53.9058  -27.4406    7.9257 C.ar      14 UNK        -0.1249 
     15 C15       -55.8258  -27.7953    9.5418 C.3       14 UNK         0.0141 
     16 S16       -55.3731  -27.5802   11.2917 S.3       14 UNK        -0.2313 
     17 C17       -53.7724  -28.4537   11.3767 C.3       14 UNK        -0.0915 
     18 CA        -53.8417  -29.7642   12.2069 C.3       13 UNK         0.0968 
     19 C         -52.5147  -30.5732   12.1428 C.2       13 UNK         0.5732 
     20 N         -52.0508  -31.1859   13.2268 N.am      13 UNK        -0.7310 
     21 O         -51.8937  -30.6557   11.0852 O.2       13 UNK        -0.5035 
     22 N         -54.2788  -29.5124   13.5884 N.am      13 UNK        -0.4233 
     23 C         -55.3347  -30.0843   14.1788 C.2       13 UNK         0.4989 
     24 O         -56.0957  -30.8681   13.6078 O.2       13 UNK        -0.4996 
     25 CA        -55.5968  -29.7143   15.6538 C.3       12 UNK         0.0216 
     26 CB        -56.4220  -30.7857   16.3987 C.3       12 UNK        -0.1964 
     27 N         -54.3890  -29.3759   16.4180 N.am      12 UNK        -0.4276 
     28 C         -53.3180  -30.1542   16.6460 C.2       12 UNK         0.5020 
     29 O         -53.1877  -31.2853   16.1740 O.2       12 UNK        -0.5489 
     30 CA        -52.1933  -29.5607   17.5184 C.3       11 UNK         0.0294 
     31 CB        -50.8062  -30.0786   17.0936 C.3       11 UNK        -0.2019 
     32 N         -52.1923  -28.1001   17.4363 N.am      11 UNK        -0.4493 
     33 C         -52.5485  -27.2501   18.4088 C.2       11 UNK         0.4932 
     34 O         -52.8481  -27.6030   19.5492 O.2       11 UNK        -0.5029 
     35 CA        -52.6064  -25.7499   18.0490 C.3       10 UNK         0.0280 
     36 CB        -51.3441  -25.0312   18.5516 C.3       10 UNK        -0.1976 
     37 N         -52.7652  -25.4885   16.6139 N.am      10 UNK        -0.4242 
     38 C         -53.8314  -25.8363   15.8773 C.2       10 UNK         0.5072 
     39 O         -54.8495  -26.3439   16.3484 O.2       10 UNK        -0.5224 
     40 CA        -53.7069  -25.6769   14.3495 C.3       9 UNK         0.0343 
     41 CB        -54.2967  -24.3353   13.8917 C.3       9 UNK        -0.2003 
     42 N         -52.3324  -25.8178   13.8449 N.am      9 UNK        -0.4272 
     43 C         -51.5716  -26.9124   14.0160 C.2       9 UNK         0.4988 
     44 O         -51.9909  -27.9223   14.5808 O.2       9 UNK        -0.5108 
     45 CA        -50.1229  -26.9162   13.4923 C.3       8 UNK         0.0248 
     46 CB        -49.8641  -28.1478   12.6118 C.3       8 UNK        -0.2001 
     47 N         -49.7528  -25.7060   12.7574 N.am      8 UNK        -0.4140 
     48 C         -49.4193  -24.5390   13.3247 C.2       8 UNK         0.5028 
     49 O         -49.3579  -24.3645   14.5422 O.2       8 UNK        -0.5428 
     50 CA        -49.1504  -23.3566   12.3773 C.3       7 UNK         0.0264 
     51 CB        -47.6423  -23.1667   12.1574 C.3       7 UNK        -0.1988 
     52 N         -49.8272  -23.4639   11.0774 N.am      7 UNK        -0.4454 
     53 C         -51.1606  -23.4207   10.9142 C.2       7 UNK         0.5027 
     54 O         -51.9397  -23.3798   11.8669 O.2       7 UNK        -0.5083 
     55 CA        -51.7437  -23.4533    9.4815 C.3       6 UNK         0.0844 
     56 C56       -52.8033  -22.3262    9.2834 C.3       14 UNK        -0.0967 
     57 S57       -53.4274  -22.1406    7.5734 S.3       14 UNK        -0.2604 
     58 C58       -54.8788  -23.2441    7.5565 C.3       14 UNK         0.0134 
     59 N         -50.7252  -23.5257    8.4254 N.am      6 UNK        -0.4116 
     60 C         -49.8991  -22.5493    8.0309 C.2       5 UNK         0.5034 
     61 O         -49.8366  -21.4321    8.5487 O.2       5 UNK        -0.5045 
     62 CA        -48.9824  -22.8881    6.8448 C.3       5 UNK         0.0224 
     63 CB        -49.4757  -22.1929    5.5657 C.3       5 UNK        -0.1978 
     64 N         -47.5889  -22.5169    7.0989 N.am      5 UNK        -0.4737 
     65 C         -46.8392  -23.0380    8.0769 C.2       4 UNK         0.5027 
     66 O         -47.2533  -23.8622    8.8963 O.2       4 UNK        -0.5211 
     67 CA        -45.3813  -22.5727    8.1515 C.3       4 UNK         0.0297 
     68 CB        -45.1671  -21.6302    9.3465 C.3       4 UNK        -0.1993 
     69 N         -44.5606  -23.7662    8.3211 N.am      4 UNK        -0.4486 
     70 C         -43.7423  -24.2820    7.3966 C.2       3 UNK         0.4961 
     71 O         -43.4225  -23.7025    6.3579 O.2       3 UNK        -0.5105 
     72 CA        -43.2029  -25.7015    7.6622 C.3       3 UNK         0.0299 
     73 CB        -41.8013  -25.6344    8.2905 C.3       3 UNK        -0.1972 
     74 N         -44.0778  -26.5191    8.5131 N.am      3 UNK        -0.4305 
     75 C         -45.3165  -26.9158    8.1858 C.2       2 UNK         0.5006 
     76 O         -45.8540  -26.6721    7.1015 O.2       2 UNK        -0.5106 
     77 CA        -46.0814  -27.7076    9.2552 C.3       2 UNK         0.0296 
     78 CB        -46.2976  -26.8809   10.5409 C.3       2 UNK        -0.2002 
     79 N         -47.3707  -28.1131    8.7037 N.am      2 UNK        -0.4032 
     80 C         -48.1521  -29.0905    9.1707 C.2       1 UNK         0.5000 
     81 O         -47.8585  -29.7906   10.1445 O.2       1 UNK        -0.5238 
     82 H82       -49.7393  -33.5960    9.4212 H         1 UNK         0.0889 
     83 H83       -50.8795  -33.5874    8.0724 H         1 UNK         0.0889 
     84 H84       -51.2679  -32.7246    9.5589 H         1 UNK         0.0889 
     85 H85       -50.7595  -30.5328    9.6073 H         1 UNK         0.3028 
     86 H86       -49.2761  -29.3443    7.3723 H         1 UNK         0.0864 
     87 H87       -50.2669  -27.5873    9.6260 H         1 UNK         0.0720 
     88 H88       -51.4897  -28.4426    8.7554 H         1 UNK         0.0720 
     89 H89       -51.9931  -28.2565    6.2448 H         1 UNK         0.0814 
     90 H90       -51.8024  -26.7321    5.4178 H         1 UNK         0.0814 
     91 H91       -52.8473  -24.6399    6.3337 H         1 UNK         0.1469 
     92 H92       -56.1220  -25.1375    9.0623 H         1 UNK         0.1381 
     93 H93       -53.6694  -28.4913    8.0197 H         1 UNK         0.1206 
     94 H94       -55.7269  -28.8458    9.2635 H         1 UNK         0.0813 
     95 H95       -56.8806  -27.5460    9.4179 H         1 UNK         0.0813 
     96 H96       -53.0375  -27.7675   11.7921 H         1 UNK         0.0638 
     97 H97       -53.4326  -28.6687   10.3647 H         1 UNK         0.0638 
     98 H98       -54.5674  -30.4081   11.7082 H         1 UNK         0.0568 
     99 H99       -51.1928  -31.7078   13.1613 H         1 UNK         0.3450 
    100 H100      -52.5499  -31.1458   14.1067 H         1 UNK         0.3450 
    101 H101      -53.6552  -28.9279   14.1353 H         1 UNK         0.2987 
    102 H102      -56.1952  -28.8024   15.6245 H         1 UNK         0.0766 
    103 H103      -57.3894  -30.9419   15.9196 H         1 UNK         0.0798 
    104 H104      -56.6189  -30.4897   17.4291 H         1 UNK         0.0798 
    105 H105      -55.9093  -31.7480   16.4181 H         1 UNK         0.0798 
    106 H106      -54.3784  -28.4358   16.7975 H         1 UNK         0.3198 
    107 H107      -52.3813  -29.8854   18.5438 H         1 UNK         0.0843 
    108 H108      -50.5927  -29.8458   16.0494 H         1 UNK         0.0831 
    109 H109      -50.7390  -31.1613   17.2070 H         1 UNK         0.0831 
    110 H110      -50.0157  -29.6415   17.7036 H         1 UNK         0.0831 
    111 H111      -52.0064  -27.7353   16.5064 H         1 UNK         0.3133 
    112 H112      -53.4711  -25.3242   18.5621 H         1 UNK         0.0566 
    113 H113      -51.4054  -23.9557   18.3843 H         1 UNK         0.0814 
    114 H114      -50.4450  -25.3984   18.0545 H         1 UNK         0.0814 
    115 H115      -51.2087  -25.1827   19.6236 H         1 UNK         0.0814 
    116 H116      -51.9738  -25.0789   16.1371 H         1 UNK         0.3091 
    117 H117      -54.3011  -26.4743   13.9001 H         1 UNK         0.0702 
    118 H118      -54.3536  -24.2824   12.8042 H         1 UNK         0.0785 
    119 H119      -53.6996  -23.4911   14.2387 H         1 UNK         0.0785 
    120 H120      -55.3101  -24.2012   14.2726 H         1 UNK         0.0785 
    121 H121      -51.9544  -25.0247   13.3399 H         1 UNK         0.2998 
    122 H122      -49.4740  -26.9961   14.3670 H         1 UNK         0.0697 
    123 H123      -48.8513  -28.1519   12.2116 H         1 UNK         0.0825 
    124 H124      -50.5610  -28.2026   11.7774 H         1 UNK         0.0825 
    125 H125      -49.9799  -29.0672   13.1869 H         1 UNK         0.0825 
    126 H126      -49.7886  -25.7501   11.7499 H         1 UNK         0.3029 
    127 H127      -49.5325  -22.4609   12.8720 H         1 UNK         0.0897 
    128 H128      -47.1949  -24.0218   11.6510 H         1 UNK         0.0792 
    129 H129      -47.1207  -23.0405   13.1072 H         1 UNK         0.0792 
    130 H130      -47.4427  -22.2784   11.5582 H         1 UNK         0.0792 
    131 H131      -49.2342  -23.5018   10.2574 H         1 UNK         0.3086 
    132 H132      -52.2720  -24.4053    9.4230 H         1 UNK         0.0583 
    133 H133      -53.6519  -22.4862    9.9515 H         1 UNK         0.1020 
    134 H134      -52.3806  -21.3622    9.5728 H         1 UNK         0.1020 
    135 H135      -55.5600  -22.9383    8.3521 H         1 UNK         0.0694 
    136 H136      -55.4149  -23.0981    6.6180 H         1 UNK         0.0694 
    137 H137      -50.6732  -24.4181    7.9520 H         1 UNK         0.2989 
    138 H138      -49.0048  -23.9677    6.6777 H         1 UNK         0.1055 
    139 H139      -49.4427  -21.1065    5.6588 H         1 UNK         0.0806 
    140 H140      -50.5085  -22.4684    5.3466 H         1 UNK         0.0806 
    141 H141      -48.8755  -22.4761    4.7008 H         1 UNK         0.0806 
    142 H142      -47.1850  -21.8218    6.4877 H         1 UNK         0.3061 
    143 H143      -45.1201  -22.0433    7.2326 H         1 UNK         0.0734 
    144 H144      -45.3833  -22.1228   10.2948 H         1 UNK         0.0832 
    145 H145      -44.1385  -21.2718    9.3852 H         1 UNK         0.0832 
    146 H146      -45.8147  -20.7553    9.2757 H         1 UNK         0.0832 
    147 H147      -44.8212  -24.3542    9.1001 H         1 UNK         0.3156 
    148 H148      -43.1190  -26.2034    6.6959 H         1 UNK         0.0589 
    149 H149      -41.8204  -25.1608    9.2730 H         1 UNK         0.0808 
    150 H150      -41.1208  -25.0558    7.6640 H         1 UNK         0.0808 
    151 H151      -41.3673  -26.6281    8.4031 H         1 UNK         0.0808 
    152 H152      -43.7088  -26.7810    9.4164 H         1 UNK         0.3098 
    153 H153      -45.4959  -28.5997    9.4870 H         1 UNK         0.0720 
    154 H154      -45.3616  -26.4881   10.9384 H         1 UNK         0.0791 
    155 H155      -46.7413  -27.4872   11.3297 H         1 UNK         0.0791 
    156 H156      -46.9611  -26.0354   10.3618 H         1 UNK         0.0791 
    157 H157      -47.6441  -27.5935    7.8770 H         1 UNK         0.3028 
@<TRIPOS>BOND
     1    1    2 1    
     2    1   82 1    
     3    1   83 1    
     4    1   84 1    
     5    2    3 2    
     6    2    4 am   BACKBONE|DICT|INTERRES
     7    4    5 1    
     8    4   85 1    
     9    5    6 1    
    10    5   80 1    
    11    5   86 1    
    12    6    7 1    
    13    6   87 1    
    14    6   88 1    
    15    7    8 1    
    16    8    9 1    
    17    8   89 1    
    18    8   90 1    
    19    9   10 ar   
    20    9   14 ar   
    21   10   11 ar   
    22   10   91 1    
    23   11   12 ar   
    24   11   58 1    
    25   12   13 ar   
    26   12   92 1    
    27   13   14 ar   
    28   13   15 1    
    29   14   93 1    
    30   15   16 1    
    31   15   94 1    
    32   15   95 1    
    33   16   17 1    
    34   17   18 1    
    35   17   96 1    
    36   17   97 1    
    37   18   19 1    
    38   18   22 1    
    39   18   98 1    
    40   19   20 am   BACKBONE|DICT|INTERRES
    41   19   21 2    
    42   20   99 1    
    43   20  100 1    
    44   22   23 am   BACKBONE|DICT|INTERRES
    45   22  101 1    
    46   23   24 2    
    47   23   25 1    
    48   25   26 1    
    49   25   27 1    
    50   25  102 1    
    51   26  103 1    
    52   26  104 1    
    53   26  105 1    
    54   27   28 am   BACKBONE|DICT|INTERRES
    55   27  106 1    
    56   28   29 2    
    57   28   30 1    
    58   30   31 1    
    59   30   32 1    
    60   30  107 1    
    61   31  108 1    
    62   31  109 1    
    63   31  110 1    
    64   32   33 am   BACKBONE|DICT|INTERRES
    65   32  111 1    
    66   33   34 2    
    67   33   35 1    
    68   35   36 1    
    69   35   37 1    
    70   35  112 1    
    71   36  113 1    
    72   36  114 1    
    73   36  115 1    
    74   37   38 am   BACKBONE|DICT|INTERRES
    75   37  116 1    
    76   38   39 2    
    77   38   40 1    
    78   40   41 1    
    79   40   42 1    
    80   40  117 1    
    81   41  118 1    
    82   41  119 1    
    83   41  120 1    
    84   42   43 am   BACKBONE|DICT|INTERRES
    85   42  121 1    
    86   43   44 2    
    87   43   45 1    
    88   45   46 1    
    89   45   47 1    
    90   45  122 1    
    91   46  123 1    
    92   46  124 1    
    93   46  125 1    
    94   47   48 am   BACKBONE|DICT|INTERRES
    95   47  126 1    
    96   48   49 2    
    97   48   50 1    
    98   50   51 1    
    99   50   52 1    
   100   50  127 1    
   101   51  128 1    
   102   51  129 1    
   103   51  130 1    
   104   52   53 am   BACKBONE|DICT|INTERRES
   105   52  131 1    
   106   53   54 2    
   107   53   55 1    
   108   55   56 1    
   109   55   59 1    
   110   55  132 1    
   111   56   57 1    
   112   56  133 1    
   113   56  134 1    
   114   57   58 1    
   115   58  135 1    
   116   58  136 1    
   117   59   60 am   BACKBONE|DICT|INTERRES
   118   59  137 1    
   119   60   61 2    
   120   60   62 1    
   121   62   63 1    
   122   62   64 1    
   123   62  138 1    
   124   63  139 1    
   125   63  140 1    
   126   63  141 1    
   127   64   65 am   BACKBONE|DICT|INTERRES
   128   64  142 1    
   129   65   66 2    
   130   65   67 1    
   131   67   68 1    
   132   67   69 1    
   133   67  143 1    
   134   68  144 1    
   135   68  145 1    
   136   68  146 1    
   137   69   70 am   BACKBONE|DICT|INTERRES
   138   69  147 1    
   139   70   71 2    
   140   70   72 1    
   141   72   73 1    
   142   72   74 1    
   143   72  148 1    
   144   73  149 1    
   145   73  150 1    
   146   73  151 1    
   147   74   75 am   BACKBONE|DICT|INTERRES
   148   74  152 1    
   149   75   76 2    
   150   75   77 1    
   151   77   78 1    
   152   77   79 1    
   153   77  153 1    
   154   78  154 1    
   155   78  155 1    
   156   78  156 1    
   157   79   80 am   BACKBONE|DICT|INTERRES
   158   79  157 1    
   159   80   81 2    
@<TRIPOS>SUBSTRUCTURE
     1 UNK         1 GROUP             0       ****    0 ROOT    
