@<TRIPOS>MOLECULE
3R207
157   159    1
SMALL
USER_CHARGES


@<TRIPOS>ATOM
      1 CA        -46.9295  -29.9720    4.0939 C.3       0 UNK        -0.1975 
      2 C         -48.2283  -29.1894    4.2143 C.2       0 UNK         0.4852 
      3 O         -49.0278  -29.1775    3.2766 O.2       0 UNK        -0.5216 
      4 N         -48.4426  -28.5237    5.3568 N.am      1 UNK        -0.4461 
      5 CA        -49.6340  -27.7298    5.6882 C.3       1 UNK         0.0864 
      6 C6        -49.7760  -27.5445    7.2220 C.3       14 UNK        -0.0898 
      7 S7        -50.0125  -29.1363    8.0832 S.3       14 UNK        -0.2598 
      8 C8        -51.6930  -28.9558    8.7623 C.3       14 UNK         0.0286 
      9 C9        -51.6856  -28.1859   10.0749 C.ar      14 UNK        -0.0844 
     10 C10       -51.8611  -26.8001   10.0898 C.ar      14 UNK        -0.0881 
     11 C11       -51.8397  -26.0957   11.2961 C.ar      14 UNK        -0.0643 
     12 C12       -51.6722  -26.7912   12.4986 C.ar      14 UNK        -0.0930 
     13 C13       -51.4968  -28.1793   12.5004 C.ar      14 UNK        -0.0827 
     14 C14       -51.4976  -28.8661   11.2807 C.ar      14 UNK        -0.1249 
     15 C15       -51.2178  -28.9094   13.8125 C.3       14 UNK         0.0141 
     16 S16       -52.0109  -30.5489   13.9529 S.3       14 UNK        -0.2313 
     17 C17       -53.6094  -30.1859   14.7507 C.3       14 UNK        -0.0915 
     18 CA        -54.7963  -30.2043   13.7520 C.3       13 UNK         0.0968 
     19 C         -56.1595  -30.3407   14.4953 C.2       13 UNK         0.5732 
     20 N         -57.0771  -29.3824   14.4208 N.am      13 UNK        -0.7310 
     21 O         -56.3956  -31.3531   15.1502 O.2       13 UNK        -0.5035 
     22 N         -54.7280  -29.0734   12.8174 N.am      13 UNK        -0.4233 
     23 C         -55.3897  -29.0059   11.6544 C.2       13 UNK         0.4989 
     24 O         -56.0169  -29.9518   11.1736 O.2       13 UNK        -0.4996 
     25 CA        -55.3656  -27.6509   10.9132 C.3       12 UNK         0.0216 
     26 CB        -56.5995  -27.4484   10.0079 C.3       12 UNK        -0.1964 
     27 N         -55.1830  -26.4927   11.8021 N.am      12 UNK        -0.4276 
     28 C         -55.9671  -26.1391   12.8306 C.2       12 UNK         0.5020 
     29 O         -56.9934  -26.7396   13.1588 O.2       12 UNK        -0.5489 
     30 CA        -55.5055  -24.9344   13.6671 C.3       11 UNK         0.0294 
     31 CB        -56.4431  -23.7341   13.4617 C.3       11 UNK        -0.2019 
     32 N         -55.4609  -25.2871   15.0882 N.am      11 UNK        -0.4493 
     33 C         -54.5971  -26.1676   15.6077 C.2       11 UNK         0.4932 
     34 O         -53.6917  -26.6964   14.9600 O.2       11 UNK        -0.5029 
     35 CA        -54.7971  -26.5506   17.0779 C.3       10 UNK         0.0280 
     36 CB        -55.9509  -27.5691   17.2000 C.3       10 UNK        -0.1976 
     37 N         -53.5370  -27.1056   17.5719 N.am      10 UNK        -0.4242 
     38 C         -53.2850  -27.5995   18.7901 C.2       10 UNK         0.5072 
     39 O         -54.1055  -27.6445   19.7079 O.2       10 UNK        -0.5224 
     40 CA        -51.8580  -28.1232   19.0329 C.3       9 UNK         0.0343 
     41 CB        -51.6500  -29.4790   18.3354 C.3       9 UNK        -0.2003 
     42 N         -50.8099  -27.1918   18.6065 N.am      9 UNK        -0.4272 
     43 C         -50.6400  -25.9411   19.0608 C.2       9 UNK         0.4988 
     44 O         -51.3580  -25.4280   19.9202 O.2       9 UNK        -0.5108 
     45 CA        -49.4645  -25.1154   18.4939 C.3       8 UNK         0.0248 
     46 CB        -48.5580  -24.6042   19.6287 C.3       8 UNK        -0.2001 
     47 N         -48.6265  -25.8026   17.5029 N.am      8 UNK        -0.4140 
     48 C         -48.9919  -26.0997   16.2508 C.2       8 UNK         0.5028 
     49 O         -50.1299  -25.9265   15.8061 O.2       8 UNK        -0.5428 
     50 CA        -47.9119  -26.7218   15.3570 C.3       7 UNK         0.0264 
     51 CB        -47.7659  -28.2264   15.6427 C.3       7 UNK        -0.1988 
     52 N         -48.3196  -26.5202   13.9693 N.am      7 UNK        -0.4454 
     53 C         -47.6202  -25.8499   13.0486 C.2       7 UNK         0.5027 
     54 O         -46.4517  -25.4819   13.1982 O.2       7 UNK        -0.5083 
     55 CA        -48.4045  -25.4566   11.7824 C.3       6 UNK         0.0844 
     56 C56       -49.2737  -24.2045   12.0702 C.3       14 UNK        -0.0967 
     57 S57       -50.4115  -23.8038   10.7017 S.3       14 UNK        -0.2604 
     58 C58       -51.9547  -24.5787   11.2849 C.3       14 UNK         0.0134 
     59 N         -47.5153  -25.2431   10.6421 N.am      6 UNK        -0.4116 
     60 C         -46.8591  -26.1971    9.9741 C.2       5 UNK         0.5034 
     61 O         -46.9416  -27.3977   10.2391 O.2       5 UNK        -0.5045 
     62 CA        -45.9847  -25.7237    8.7937 C.3       5 UNK         0.0224 
     63 CB        -45.4069  -26.8942    7.9748 C.3       5 UNK        -0.1978 
     64 N         -46.7100  -24.8326    7.8831 N.am      5 UNK        -0.4737 
     65 C         -46.9631  -23.5318    8.0820 C.2       4 UNK         0.5027 
     66 O         -46.6209  -22.9243    9.0978 O.2       4 UNK        -0.5211 
     67 CA        -47.7524  -22.8142    6.9719 C.3       4 UNK         0.0297 
     68 CB        -47.6139  -21.2775    7.0166 C.3       4 UNK        -0.1993 
     69 N         -47.4543  -23.3589    5.6407 N.am      4 UNK        -0.4486 
     70 C         -46.3042  -23.2697    4.9511 C.2       3 UNK         0.4961 
     71 O         -45.3353  -22.6072    5.3230 O.2       3 UNK        -0.5105 
     72 CA        -46.1817  -24.0800    3.6407 C.3       3 UNK         0.0299 
     73 CB        -44.9954  -25.0578    3.7193 C.3       3 UNK        -0.1972 
     74 N         -47.3845  -24.8434    3.2985 N.am      3 UNK        -0.4305 
     75 C         -48.5140  -24.3356    2.7869 C.2       2 UNK         0.5006 
     76 O         -48.6417  -23.1601    2.4440 O.2       2 UNK        -0.5106 
     77 CA        -49.7196  -25.2898    2.6750 C.3       2 UNK         0.0296 
     78 CB        -49.8599  -25.8085    1.2347 C.3       2 UNK        -0.2002 
     79 N         -49.6866  -26.4350    3.5961 N.am      2 UNK        -0.4032 
     80 C         -49.6421  -26.3793    4.9354 C.2       1 UNK         0.5000 
     81 O         -49.5634  -25.3213    5.5628 O.2       1 UNK        -0.5238 
     82 H82       -47.1429  -31.0278    3.9291 H         1 UNK         0.0889 
     83 H83       -46.3161  -29.8858    4.9907 H         1 UNK         0.0889 
     84 H84       -46.3478  -29.6057    3.2484 H         1 UNK         0.0889 
     85 H85       -47.7575  -28.5912    6.0951 H         1 UNK         0.3028 
     86 H86       -50.5141  -28.2768    5.3421 H         1 UNK         0.0864 
     87 H87       -50.6164  -26.8875    7.4466 H         1 UNK         0.0720 
     88 H88       -48.8942  -27.0560    7.6402 H         1 UNK         0.0720 
     89 H89       -52.1109  -29.9502    8.9264 H         1 UNK         0.0814 
     90 H90       -52.3455  -28.4736    8.0328 H         1 UNK         0.0814 
     91 H91       -51.9934  -26.2602    9.1628 H         1 UNK         0.1469 
     92 H92       -51.6479  -26.2465   13.4333 H         1 UNK         0.1381 
     93 H93       -51.3379  -29.9353   11.2648 H         1 UNK         0.1206 
     94 H94       -50.1412  -29.0649   13.8658 H         1 UNK         0.0813 
     95 H95       -51.4831  -28.2939   14.6733 H         1 UNK         0.0813 
     96 H96       -53.5606  -29.2398   15.2880 H         1 UNK         0.0638 
     97 H97       -53.7426  -30.9510   15.5177 H         1 UNK         0.0638 
     98 H98       -54.7066  -31.1164   13.1590 H         1 UNK         0.0568 
     99 H99       -57.9511  -29.5098   14.9038 H         1 UNK         0.3450 
    100 H100      -56.9203  -28.5310   13.8894 H         1 UNK         0.3450 
    101 H101      -54.2270  -28.2597   13.1475 H         1 UNK         0.2987 
    102 H102      -54.4922  -27.6848   10.2636 H         1 UNK         0.0766 
    103 H103      -56.6637  -28.2302    9.2501 H         1 UNK         0.0798 
    104 H104      -56.5537  -26.4947    9.4822 H         1 UNK         0.0798 
    105 H105      -57.5281  -27.4726   10.5791 H         1 UNK         0.0798 
    106 H106      -54.3374  -25.9635   11.6440 H         1 UNK         0.3198 
    107 H107      -54.4994  -24.6425   13.3581 H         1 UNK         0.0843 
    108 H108      -57.4654  -23.9630   13.7662 H         1 UNK         0.0831 
    109 H109      -56.4751  -23.4407   12.4115 H         1 UNK         0.0831 
    110 H110      -56.1088  -22.8659   14.0298 H         1 UNK         0.0831 
    111 H111      -56.2053  -24.9293   15.6692 H         1 UNK         0.3133 
    112 H112      -55.0314  -25.6494   17.6472 H         1 UNK         0.0566 
    113 H113      -55.6644  -28.5439   16.8065 H         1 UNK         0.0814 
    114 H114      -56.8359  -27.2427   16.6520 H         1 UNK         0.0814 
    115 H115      -56.2587  -27.7075   18.2359 H         1 UNK         0.0814 
    116 H116      -52.7977  -27.0957   16.8782 H         1 UNK         0.3091 
    117 H117      -51.7418  -28.2734   20.1083 H         1 UNK         0.0702 
    118 H118      -50.6859  -29.9158   18.5968 H         1 UNK         0.0785 
    119 H119      -51.6937  -29.3902   17.2490 H         1 UNK         0.0785 
    120 H120      -52.4185  -30.1935   18.6342 H         1 UNK         0.0785 
    121 H121      -50.1776  -27.5164   17.8909 H         1 UNK         0.2998 
    122 H122      -49.9086  -24.2467   18.0031 H         1 UNK         0.0697 
    123 H123      -48.0848  -25.4261   20.1674 H         1 UNK         0.0825 
    124 H124      -49.1256  -24.0227   20.3568 H         1 UNK         0.0825 
    125 H125      -47.7710  -23.9532   19.2475 H         1 UNK         0.0825 
    126 H126      -47.6816  -26.0138   17.7921 H         1 UNK         0.3029 
    127 H127      -46.9615  -26.2214   15.5566 H         1 UNK         0.0897 
    128 H128      -48.7242  -28.7446   15.6247 H         1 UNK         0.0792 
    129 H129      -47.3301  -28.3942   16.6283 H         1 UNK         0.0792 
    130 H130      -47.1103  -28.7065   14.9158 H         1 UNK         0.0792 
    131 H131      -49.3014  -26.6925   13.7985 H         1 UNK         0.3086 
    132 H132      -49.0573  -26.2933   11.5279 H         1 UNK         0.0583 
    133 H133      -49.8597  -24.3308   12.9830 H         1 UNK         0.1020 
    134 H134      -48.6382  -23.3346   12.2485 H         1 UNK         0.1020 
    135 H135      -52.2052  -24.1960   12.2756 H         1 UNK         0.0694 
    136 H136      -52.7695  -24.2795   10.6239 H         1 UNK         0.0694 
    137 H137      -47.3674  -24.2822   10.3534 H         1 UNK         0.2989 
    138 H138      -45.1458  -25.1723    9.2249 H         1 UNK         0.1055 
    139 H139      -46.1943  -27.5058    7.5335 H         1 UNK         0.0806 
    140 H140      -44.8001  -27.5482    8.6027 H         1 UNK         0.0806 
    141 H141      -44.7645  -26.5375    7.1694 H         1 UNK         0.0806 
    142 H142      -47.0719  -25.2492    7.0384 H         1 UNK         0.3061 
    143 H143      -48.8018  -23.0485    7.1589 H         1 UNK         0.0734 
    144 H144      -46.5743  -20.9583    6.9419 H         1 UNK         0.0832 
    145 H145      -48.1714  -20.8044    6.2084 H         1 UNK         0.0832 
    146 H146      -48.0043  -20.8810    7.9546 H         1 UNK         0.0832 
    147 H147      -48.1865  -23.9587    5.2704 H         1 UNK         0.3156 
    148 H148      -45.9841  -23.3671    2.8376 H         1 UNK         0.0589 
    149 H149      -44.8668  -25.6033    2.7842 H         1 UNK         0.0808 
    150 H150      -44.0611  -24.5280    3.9104 H         1 UNK         0.0808 
    151 H151      -45.1244  -25.7871    4.5201 H         1 UNK         0.0808 
    152 H152      -47.3751  -25.8253    3.5309 H         1 UNK         0.3098 
    153 H153      -50.6105  -24.7068    2.9170 H         1 UNK         0.0720 
    154 H154      -49.9134  -24.9826    0.5237 H         1 UNK         0.0791 
    155 H155      -50.7687  -26.3980    1.1118 H         1 UNK         0.0791 
    156 H156      -49.0131  -26.4332    0.9471 H         1 UNK         0.0791 
    157 H157      -49.6738  -27.3624    3.1783 H         1 UNK         0.3028 
@<TRIPOS>BOND
     1    1    2 1    
     2    1   82 1    
     3    1   83 1    
     4    1   84 1    
     5    2    3 2    
     6    2    4 am   BACKBONE|DICT|INTERRES
     7    4    5 1    
     8    4   85 1    
     9    5    6 1    
    10    5   80 1    
    11    5   86 1    
    12    6    7 1    
    13    6   87 1    
    14    6   88 1    
    15    7    8 1    
    16    8    9 1    
    17    8   89 1    
    18    8   90 1    
    19    9   10 ar   
    20    9   14 ar   
    21   10   11 ar   
    22   10   91 1    
    23   11   12 ar   
    24   11   58 1    
    25   12   13 ar   
    26   12   92 1    
    27   13   14 ar   
    28   13   15 1    
    29   14   93 1    
    30   15   16 1    
    31   15   94 1    
    32   15   95 1    
    33   16   17 1    
    34   17   18 1    
    35   17   96 1    
    36   17   97 1    
    37   18   19 1    
    38   18   22 1    
    39   18   98 1    
    40   19   20 am   BACKBONE|DICT|INTERRES
    41   19   21 2    
    42   20   99 1    
    43   20  100 1    
    44   22   23 am   BACKBONE|DICT|INTERRES
    45   22  101 1    
    46   23   24 2    
    47   23   25 1    
    48   25   26 1    
    49   25   27 1    
    50   25  102 1    
    51   26  103 1    
    52   26  104 1    
    53   26  105 1    
    54   27   28 am   BACKBONE|DICT|INTERRES
    55   27  106 1    
    56   28   29 2    
    57   28   30 1    
    58   30   31 1    
    59   30   32 1    
    60   30  107 1    
    61   31  108 1    
    62   31  109 1    
    63   31  110 1    
    64   32   33 am   BACKBONE|DICT|INTERRES
    65   32  111 1    
    66   33   34 2    
    67   33   35 1    
    68   35   36 1    
    69   35   37 1    
    70   35  112 1    
    71   36  113 1    
    72   36  114 1    
    73   36  115 1    
    74   37   38 am   BACKBONE|DICT|INTERRES
    75   37  116 1    
    76   38   39 2    
    77   38   40 1    
    78   40   41 1    
    79   40   42 1    
    80   40  117 1    
    81   41  118 1    
    82   41  119 1    
    83   41  120 1    
    84   42   43 am   BACKBONE|DICT|INTERRES
    85   42  121 1    
    86   43   44 2    
    87   43   45 1    
    88   45   46 1    
    89   45   47 1    
    90   45  122 1    
    91   46  123 1    
    92   46  124 1    
    93   46  125 1    
    94   47   48 am   BACKBONE|DICT|INTERRES
    95   47  126 1    
    96   48   49 2    
    97   48   50 1    
    98   50   51 1    
    99   50   52 1    
   100   50  127 1    
   101   51  128 1    
   102   51  129 1    
   103   51  130 1    
   104   52   53 am   BACKBONE|DICT|INTERRES
   105   52  131 1    
   106   53   54 2    
   107   53   55 1    
   108   55   56 1    
   109   55   59 1    
   110   55  132 1    
   111   56   57 1    
   112   56  133 1    
   113   56  134 1    
   114   57   58 1    
   115   58  135 1    
   116   58  136 1    
   117   59   60 am   BACKBONE|DICT|INTERRES
   118   59  137 1    
   119   60   61 2    
   120   60   62 1    
   121   62   63 1    
   122   62   64 1    
   123   62  138 1    
   124   63  139 1    
   125   63  140 1    
   126   63  141 1    
   127   64   65 am   BACKBONE|DICT|INTERRES
   128   64  142 1    
   129   65   66 2    
   130   65   67 1    
   131   67   68 1    
   132   67   69 1    
   133   67  143 1    
   134   68  144 1    
   135   68  145 1    
   136   68  146 1    
   137   69   70 am   BACKBONE|DICT|INTERRES
   138   69  147 1    
   139   70   71 2    
   140   70   72 1    
   141   72   73 1    
   142   72   74 1    
   143   72  148 1    
   144   73  149 1    
   145   73  150 1    
   146   73  151 1    
   147   74   75 am   BACKBONE|DICT|INTERRES
   148   74  152 1    
   149   75   76 2    
   150   75   77 1    
   151   77   78 1    
   152   77   79 1    
   153   77  153 1    
   154   78  154 1    
   155   78  155 1    
   156   78  156 1    
   157   79   80 am   BACKBONE|DICT|INTERRES
   158   79  157 1    
   159   80   81 2    
@<TRIPOS>SUBSTRUCTURE
     1 UNK         1 GROUP             0       ****    0 ROOT    
