@<TRIPOS>MOLECULE
3R207
157   159    1
SMALL
USER_CHARGES


@<TRIPOS>ATOM
      1 CA        -45.5319  -26.2047   11.5696 C.3       0 UNK        -0.1975 
      2 C         -46.3130  -26.4757   10.2933 C.2       0 UNK         0.4852 
      3 O         -47.3400  -25.8379   10.0590 O.2       0 UNK        -0.5216 
      4 N         -45.8221  -27.4177    9.4755 N.am      1 UNK        -0.4461 
      5 CA        -46.3785  -27.8328    8.1771 C.3       1 UNK         0.0864 
      6 C6        -47.8225  -28.4013    8.2568 C.3       14 UNK        -0.0898 
      7 S7        -47.9189  -29.8038    9.4230 S.3       14 UNK        -0.2598 
      8 C8        -49.0877  -30.9289    8.6004 C.3       14 UNK         0.0286 
      9 C9        -50.5250  -30.5945    8.9662 C.ar      14 UNK        -0.0844 
     10 C10       -51.2821  -29.7373    8.1632 C.ar      14 UNK        -0.0881 
     11 C11       -52.6022  -29.4303    8.5076 C.ar      14 UNK        -0.0643 
     12 C12       -53.1722  -30.0133    9.6432 C.ar      14 UNK        -0.0930 
     13 C13       -52.4205  -30.8558   10.4646 C.ar      14 UNK        -0.0827 
     14 C14       -51.0979  -31.1463   10.1165 C.ar      14 UNK        -0.1249 
     15 C15       -53.0353  -31.4574   11.7215 C.3       14 UNK         0.0141 
     16 S16       -53.3298  -30.2020   13.0135 S.3       14 UNK        -0.2313 
     17 C17       -55.0933  -29.7785   12.7740 C.3       14 UNK        -0.0915 
     18 CA        -55.3444  -28.3179   12.3078 C.3       13 UNK         0.0968 
     19 C         -56.8683  -28.0670   12.0968 C.2       13 UNK         0.5732 
     20 N         -57.5219  -27.1878   12.8494 N.am      13 UNK        -0.7310 
     21 O         -57.4709  -28.6873   11.2242 O.2       13 UNK        -0.5035 
     22 N         -54.6759  -27.3493   13.1839 N.am      13 UNK        -0.4233 
     23 C         -54.4955  -26.0507   12.9131 C.2       13 UNK         0.4989 
     24 O         -54.8325  -25.5138   11.8564 O.2       13 UNK        -0.4996 
     25 CA        -53.8545  -25.2192   14.0415 C.3       12 UNK         0.0216 
     26 CB        -54.0085  -23.6984   13.8330 C.3       12 UNK        -0.1964 
     27 N         -54.3280  -25.6143   15.3764 N.am      12 UNK        -0.4276 
     28 C         -55.6000  -25.6404   15.8127 C.2       12 UNK         0.5020 
     29 O         -56.5641  -25.3208   15.1151 O.2       12 UNK        -0.5489 
     30 CA        -55.8696  -26.1577   17.2414 C.3       11 UNK         0.0294 
     31 CB        -56.6904  -27.4585   17.1905 C.3       11 UNK        -0.2019 
     32 N         -54.6565  -26.4034   18.0238 N.am      11 UNK        -0.4493 
     33 C         -53.8690  -25.4587   18.5556 C.2       11 UNK         0.4932 
     34 O         -54.1329  -24.2567   18.5346 O.2       11 UNK        -0.5029 
     35 CA        -52.5442  -25.9314   19.1872 C.3       10 UNK         0.0280 
     36 CB        -52.6730  -25.9900   20.7180 C.3       10 UNK        -0.1976 
     37 N         -52.0590  -27.2288   18.6924 N.am      10 UNK        -0.4242 
     38 C         -51.7449  -27.5061   17.4191 C.2       10 UNK         0.5072 
     39 O         -51.8666  -26.7033   16.4882 O.2       10 UNK        -0.5224 
     40 CA        -51.2754  -28.9351   17.1287 C.3       9 UNK         0.0343 
     41 CB        -52.4714  -29.8996   17.0364 C.3       9 UNK        -0.2003 
     42 N         -50.5640  -28.9259   15.8577 N.am      9 UNK        -0.4272 
     43 C         -49.5146  -29.6872   15.5300 C.2       9 UNK         0.4988 
     44 O         -49.0452  -30.5589   16.2629 O.2       9 UNK        -0.5108 
     45 CA        -48.8741  -29.4390   14.1520 C.3       8 UNK         0.0248 
     46 CB        -49.2797  -30.5442   13.1659 C.3       8 UNK        -0.2001 
     47 N         -49.2377  -28.1370   13.5870 N.am      8 UNK        -0.4140 
     48 C         -48.6893  -26.9671   13.9383 C.2       8 UNK         0.5028 
     49 O         -47.7470  -26.8718   14.7265 O.2       8 UNK        -0.5428 
     50 CA        -49.3005  -25.6970   13.3121 C.3       7 UNK         0.0264 
     51 CB        -48.4086  -24.4521   13.4723 C.3       7 UNK        -0.1988 
     52 N         -49.6360  -25.8592   11.8947 N.am      7 UNK        -0.4454 
     53 C         -50.7548  -26.4294   11.4272 C.2       7 UNK         0.5027 
     54 O         -51.5542  -27.0045   12.1648 O.2       7 UNK        -0.5083 
     55 CA        -50.9984  -26.3879    9.9017 C.3       6 UNK         0.0844 
     56 C56       -52.5045  -26.4576    9.5208 C.3       14 UNK        -0.0967 
     57 S57       -52.7258  -26.7554    7.7289 S.3       14 UNK        -0.2604 
     58 C58       -53.4104  -28.4457    7.6744 C.3       14 UNK         0.0134 
     59 N         -50.2994  -25.2745    9.2437 N.am      6 UNK        -0.4116 
     60 C         -50.5249  -23.9638    9.4255 C.2       5 UNK         0.5034 
     61 O         -51.3200  -23.5025   10.2449 O.2       5 UNK        -0.5045 
     62 CA        -49.7361  -22.9950    8.5270 C.3       5 UNK         0.0224 
     63 CB        -48.4555  -22.5166    9.2290 C.3       5 UNK        -0.1978 
     64 N         -49.3972  -23.5678    7.2197 N.am      5 UNK        -0.4737 
     65 C         -50.2985  -23.8372    6.2611 C.2       4 UNK         0.5027 
     66 O         -51.4976  -23.5757    6.3673 O.2       4 UNK        -0.5211 
     67 CA        -49.7693  -24.5017    4.9732 C.3       4 UNK         0.0297 
     68 CB        -50.7601  -24.4144    3.7927 C.3       4 UNK        -0.1993 
     69 N         -48.4431  -24.0091    4.5880 N.am      4 UNK        -0.4486 
     70 C         -48.0959  -22.7427    4.3049 C.2       3 UNK         0.4961 
     71 O         -48.9032  -21.8183    4.1971 O.2       3 UNK        -0.5105 
     72 CA        -46.5897  -22.4527    4.1199 C.3       3 UNK         0.0299 
     73 CB        -46.1987  -21.0600    4.6593 C.3       3 UNK        -0.1972 
     74 N         -45.6979  -23.4837    4.6739 N.am      3 UNK        -0.4305 
     75 C         -45.6238  -23.8962    5.9484 C.2       2 UNK         0.5006 
     76 O         -46.3157  -23.4521    6.8669 O.2       2 UNK        -0.5106 
     77 CA        -44.6012  -25.0073    6.2297 C.3       2 UNK         0.0296 
     78 CB        -43.2875  -24.4006    6.7492 C.3       2 UNK        -0.2002 
     79 N         -45.0766  -26.0084    7.1876 N.am      2 UNK        -0.4032 
     80 C         -46.1918  -26.7503    7.0878 C.2       1 UNK         0.5000 
     81 O         -47.0134  -26.6361    6.1737 O.2       1 UNK        -0.5238 
     82 H82       -44.5535  -26.6845   11.5582 H         1 UNK         0.0889 
     83 H83       -46.0811  -26.5784   12.4324 H         1 UNK         0.0889 
     84 H84       -45.3784  -25.1334   11.6956 H         1 UNK         0.0889 
     85 H85       -44.9915  -27.9192    9.7589 H         1 UNK         0.3028 
     86 H86       -45.7424  -28.6551    7.8452 H         1 UNK         0.0864 
     87 H87       -48.1499  -28.7380    7.2720 H         1 UNK         0.0720 
     88 H88       -48.5273  -27.6312    8.5629 H         1 UNK         0.0720 
     89 H89       -48.8621  -31.9500    8.9116 H         1 UNK         0.0814 
     90 H90       -48.9455  -30.9090    7.5190 H         1 UNK         0.0814 
     91 H91       -50.8405  -29.2895    7.2834 H         1 UNK         0.1469 
     92 H92       -54.1975  -29.7954    9.9023 H         1 UNK         0.1381 
     93 H93       -50.5086  -31.8029   10.7417 H         1 UNK         0.1206 
     94 H94       -52.3690  -32.2148   12.1371 H         1 UNK         0.0813 
     95 H95       -53.9570  -31.9828   11.4699 H         1 UNK         0.0813 
     96 H96       -55.5993  -29.9565   13.7247 H         1 UNK         0.0638 
     97 H97       -55.5390  -30.4797   12.0670 H         1 UNK         0.0638 
     98 H98       -54.8913  -28.1986   11.3242 H         1 UNK         0.0568 
     99 H99       -57.0444  -26.6370   13.5533 H         1 UNK         0.3450 
    100 H100      -58.5057  -27.0445   12.6885 H         1 UNK         0.3450 
    101 H101      -54.3464  -27.7086   14.0659 H         1 UNK         0.2987 
    102 H102      -52.7882  -25.4473   14.0180 H         1 UNK         0.0766 
    103 H103      -53.5466  -23.3855   12.8954 H         1 UNK         0.0798 
    104 H104      -53.5265  -23.1380   14.6340 H         1 UNK         0.0798 
    105 H105      -55.0567  -23.3999   13.7967 H         1 UNK         0.0798 
    106 H106      -53.5947  -25.9330   16.0049 H         1 UNK         0.3198 
    107 H107      -56.4619  -25.3960   17.7530 H         1 UNK         0.0843 
    108 H108      -56.1521  -28.2579   16.6795 H         1 UNK         0.0831 
    109 H109      -57.6303  -27.3084   16.6569 H         1 UNK         0.0831 
    110 H110      -56.9441  -27.8085   18.1913 H         1 UNK         0.0831 
    111 H111      -54.3627  -27.3649   18.1119 H         1 UNK         0.3133 
    112 H112      -51.7870  -25.1854   18.9375 H         1 UNK         0.0566 
    113 H113      -51.7179  -26.2224   21.1897 H         1 UNK         0.0814 
    114 H114      -53.3974  -26.7416   21.0345 H         1 UNK         0.0814 
    115 H115      -53.0035  -25.0307   21.1195 H         1 UNK         0.0814 
    116 H116      -51.9406  -27.9549   19.3851 H         1 UNK         0.3091 
    117 H117      -50.6022  -29.2494   17.9292 H         1 UNK         0.0702 
    118 H118      -52.1425  -30.9141   16.8098 H         1 UNK         0.0785 
    119 H119      -53.1735  -29.5982   16.2576 H         1 UNK         0.0785 
    120 H120      -53.0209  -29.9420   17.9775 H         1 UNK         0.0785 
    121 H121      -50.8556  -28.1901   15.2270 H         1 UNK         0.2998 
    122 H122      -47.7902  -29.4767   14.2796 H         1 UNK         0.0697 
    123 H123      -50.3547  -30.5471   12.9880 H         1 UNK         0.0825 
    124 H124      -49.0084  -31.5298   13.5463 H         1 UNK         0.0825 
    125 H125      -48.7809  -30.4198   12.2056 H         1 UNK         0.0825 
    126 H126      -50.0351  -28.1104   12.9596 H         1 UNK         0.3029 
    127 H127      -50.2226  -25.5024   13.8646 H         1 UNK         0.0897 
    128 H128      -47.4599  -24.5629   12.9492 H         1 UNK         0.0792 
    129 H129      -48.1845  -24.2596   14.5224 H         1 UNK         0.0792 
    130 H130      -48.9020  -23.5618   13.0816 H         1 UNK         0.0792 
    131 H131      -48.9469  -25.5362   11.2207 H         1 UNK         0.3086 
    132 H132      -50.5329  -27.3004    9.5321 H         1 UNK         0.0583 
    133 H133      -53.0180  -27.2381   10.0823 H         1 UNK         0.1020 
    134 H134      -53.0138  -25.5305    9.7872 H         1 UNK         0.1020 
    135 H135      -54.4476  -28.4123    8.0118 H         1 UNK         0.0694 
    136 H136      -53.4353  -28.7854    6.6382 H         1 UNK         0.0694 
    137 H137      -49.5862  -25.5334    8.5781 H         1 UNK         0.2989 
    138 H138      -50.3739  -22.1247    8.3569 H         1 UNK         0.1055 
    139 H139      -47.7464  -23.3311    9.3772 H         1 UNK         0.0806 
    140 H140      -48.6789  -22.0942   10.2097 H         1 UNK         0.0806 
    141 H141      -47.9528  -21.7429    8.6483 H         1 UNK         0.0806 
    142 H142      -48.4137  -23.7479    7.0417 H         1 UNK         0.3061 
    143 H143      -49.6403  -25.5580    5.2151 H         1 UNK         0.0734 
    144 H144      -50.9922  -23.3813    3.5330 H         1 UNK         0.0832 
    145 H145      -50.3635  -24.9042    2.9036 H         1 UNK         0.0832 
    146 H146      -51.7024  -24.9056    4.0389 H         1 UNK         0.0832 
    147 H147      -47.6964  -24.6866    4.6738 H         1 UNK         0.3156 
    148 H148      -46.4163  -22.4500    3.0429 H         1 UNK         0.0589 
    149 H149      -45.1375  -20.8599    4.5118 H         1 UNK         0.0808 
    150 H150      -46.7485  -20.2700    4.1462 H         1 UNK         0.0808 
    151 H151      -46.4133  -20.9650    5.7244 H         1 UNK         0.0808 
    152 H152      -45.0883  -23.9270    3.9995 H         1 UNK         0.3098 
    153 H153      -44.3938  -25.5347    5.2964 H         1 UNK         0.0720 
    154 H154      -42.8890  -23.6674    6.0464 H         1 UNK         0.0791 
    155 H155      -42.5214  -25.1642    6.8857 H         1 UNK         0.0791 
    156 H156      -43.4303  -23.8917    7.7036 H         1 UNK         0.0791 
    157 H157      -44.4932  -26.1588    7.9967 H         1 UNK         0.3028 
@<TRIPOS>BOND
     1    1    2 1    
     2    1   82 1    
     3    1   83 1    
     4    1   84 1    
     5    2    3 2    
     6    2    4 am   BACKBONE|DICT|INTERRES
     7    4    5 1    
     8    4   85 1    
     9    5    6 1    
    10    5   80 1    
    11    5   86 1    
    12    6    7 1    
    13    6   87 1    
    14    6   88 1    
    15    7    8 1    
    16    8    9 1    
    17    8   89 1    
    18    8   90 1    
    19    9   10 ar   
    20    9   14 ar   
    21   10   11 ar   
    22   10   91 1    
    23   11   12 ar   
    24   11   58 1    
    25   12   13 ar   
    26   12   92 1    
    27   13   14 ar   
    28   13   15 1    
    29   14   93 1    
    30   15   16 1    
    31   15   94 1    
    32   15   95 1    
    33   16   17 1    
    34   17   18 1    
    35   17   96 1    
    36   17   97 1    
    37   18   19 1    
    38   18   22 1    
    39   18   98 1    
    40   19   20 am   BACKBONE|DICT|INTERRES
    41   19   21 2    
    42   20   99 1    
    43   20  100 1    
    44   22   23 am   BACKBONE|DICT|INTERRES
    45   22  101 1    
    46   23   24 2    
    47   23   25 1    
    48   25   26 1    
    49   25   27 1    
    50   25  102 1    
    51   26  103 1    
    52   26  104 1    
    53   26  105 1    
    54   27   28 am   BACKBONE|DICT|INTERRES
    55   27  106 1    
    56   28   29 2    
    57   28   30 1    
    58   30   31 1    
    59   30   32 1    
    60   30  107 1    
    61   31  108 1    
    62   31  109 1    
    63   31  110 1    
    64   32   33 am   BACKBONE|DICT|INTERRES
    65   32  111 1    
    66   33   34 2    
    67   33   35 1    
    68   35   36 1    
    69   35   37 1    
    70   35  112 1    
    71   36  113 1    
    72   36  114 1    
    73   36  115 1    
    74   37   38 am   BACKBONE|DICT|INTERRES
    75   37  116 1    
    76   38   39 2    
    77   38   40 1    
    78   40   41 1    
    79   40   42 1    
    80   40  117 1    
    81   41  118 1    
    82   41  119 1    
    83   41  120 1    
    84   42   43 am   BACKBONE|DICT|INTERRES
    85   42  121 1    
    86   43   44 2    
    87   43   45 1    
    88   45   46 1    
    89   45   47 1    
    90   45  122 1    
    91   46  123 1    
    92   46  124 1    
    93   46  125 1    
    94   47   48 am   BACKBONE|DICT|INTERRES
    95   47  126 1    
    96   48   49 2    
    97   48   50 1    
    98   50   51 1    
    99   50   52 1    
   100   50  127 1    
   101   51  128 1    
   102   51  129 1    
   103   51  130 1    
   104   52   53 am   BACKBONE|DICT|INTERRES
   105   52  131 1    
   106   53   54 2    
   107   53   55 1    
   108   55   56 1    
   109   55   59 1    
   110   55  132 1    
   111   56   57 1    
   112   56  133 1    
   113   56  134 1    
   114   57   58 1    
   115   58  135 1    
   116   58  136 1    
   117   59   60 am   BACKBONE|DICT|INTERRES
   118   59  137 1    
   119   60   61 2    
   120   60   62 1    
   121   62   63 1    
   122   62   64 1    
   123   62  138 1    
   124   63  139 1    
   125   63  140 1    
   126   63  141 1    
   127   64   65 am   BACKBONE|DICT|INTERRES
   128   64  142 1    
   129   65   66 2    
   130   65   67 1    
   131   67   68 1    
   132   67   69 1    
   133   67  143 1    
   134   68  144 1    
   135   68  145 1    
   136   68  146 1    
   137   69   70 am   BACKBONE|DICT|INTERRES
   138   69  147 1    
   139   70   71 2    
   140   70   72 1    
   141   72   73 1    
   142   72   74 1    
   143   72  148 1    
   144   73  149 1    
   145   73  150 1    
   146   73  151 1    
   147   74   75 am   BACKBONE|DICT|INTERRES
   148   74  152 1    
   149   75   76 2    
   150   75   77 1    
   151   77   78 1    
   152   77   79 1    
   153   77  153 1    
   154   78  154 1    
   155   78  155 1    
   156   78  156 1    
   157   79   80 am   BACKBONE|DICT|INTERRES
   158   79  157 1    
   159   80   81 2    
@<TRIPOS>SUBSTRUCTURE
     1 UNK         1 GROUP             0       ****    0 ROOT    
