@<TRIPOS>MOLECULE
3R207
157   159    1
SMALL
USER_CHARGES


@<TRIPOS>ATOM
      1 CA        -45.5479  -27.9708    9.7805 C.3       0 UNK        -0.1975 
      2 C         -46.4424  -27.7461    8.5719 C.2       0 UNK         0.4852 
      3 O         -47.1710  -26.7565    8.5256 O.2       0 UNK        -0.5216 
      4 N         -46.3814  -28.6395    7.5761 N.am      1 UNK        -0.4461 
      5 CA        -47.1920  -28.6624    6.3439 C.3       1 UNK         0.0864 
      6 C6        -48.7220  -28.7384    6.6046 C.3       14 UNK        -0.0898 
      7 S7        -49.1642  -30.2284    7.5625 S.3       14 UNK        -0.2598 
      8 C8        -50.8619  -30.5543    6.9965 C.3       14 UNK         0.0286 
      9 C9        -51.8868  -30.0212    7.9848 C.ar      14 UNK        -0.0844 
     10 C10       -52.2642  -28.6736    7.9639 C.ar      14 UNK        -0.0881 
     11 C11       -53.2166  -28.1946    8.8692 C.ar      14 UNK        -0.0643 
     12 C12       -53.8090  -29.0786    9.7734 C.ar      14 UNK        -0.0930 
     13 C13       -53.4304  -30.4211    9.8153 C.ar      14 UNK        -0.0827 
     14 C14       -52.4670  -30.8873    8.9177 C.ar      14 UNK        -0.1249 
     15 C15       -54.0695  -31.3567   10.8304 C.3       14 UNK         0.0141 
     16 S16       -53.6138  -30.8801   12.5274 S.3       14 UNK        -0.2313 
     17 C17       -55.2414  -30.8028   13.3493 C.3       14 UNK        -0.0915 
     18 CA        -56.0426  -29.5103   13.0300 C.3       13 UNK         0.0968 
     19 C         -57.4362  -29.5178   13.7267 C.2       13 UNK         0.5732 
     20 N         -57.8061  -28.5165   14.5179 N.am      13 UNK        -0.7310 
     21 O         -58.2084  -30.4544   13.5360 O.2       13 UNK        -0.5035 
     22 N         -55.2514  -28.2935   13.2693 N.am      13 UNK        -0.4233 
     23 C         -55.4581  -27.1202   12.6600 C.2       13 UNK         0.4989 
     24 O         -56.2943  -26.9481   11.7717 O.2       13 UNK        -0.4996 
     25 CA        -54.5750  -25.9497   13.1300 C.3       12 UNK         0.0216 
     26 CB        -55.0953  -24.5756   12.6605 C.3       12 UNK        -0.1964 
     27 N         -54.3376  -25.9425   14.5788 N.am      12 UNK        -0.4276 
     28 C         -55.2588  -25.9072   15.5550 C.2       12 UNK         0.5020 
     29 O         -56.4738  -25.9625   15.3603 O.2       12 UNK        -0.5489 
     30 CA        -54.7372  -25.8056   16.9984 C.3       11 UNK         0.0294 
     31 CB        -54.5057  -27.2075   17.5829 C.3       11 UNK        -0.2019 
     32 N         -53.5021  -25.0256   17.1064 N.am      11 UNK        -0.4493 
     33 C         -53.3891  -23.7093   16.8855 C.2       11 UNK         0.4932 
     34 O         -54.3471  -22.9765   16.6392 O.2       11 UNK        -0.5029 
     35 CA        -51.9730  -23.0989   16.9180 C.3       10 UNK         0.0280 
     36 CB        -51.5871  -22.6635   18.3455 C.3       10 UNK        -0.1976 
     37 N         -50.9313  -23.9367   16.2999 N.am      10 UNK        -0.4242 
     38 C         -50.4595  -25.1215   16.7111 C.2       10 UNK         0.5072 
     39 O         -50.8125  -25.6854   17.7501 O.2       10 UNK        -0.5224 
     40 CA        -49.4461  -25.8097   15.7836 C.3       9 UNK         0.0343 
     41 CB        -48.0085  -25.5458   16.2580 C.3       9 UNK        -0.2003 
     42 N         -49.6738  -27.2540   15.7035 N.am      9 UNK        -0.4272 
     43 C         -50.7912  -27.8270   15.2387 C.2       9 UNK         0.4988 
     44 O         -51.7565  -27.2046   14.7857 O.2       9 UNK        -0.5108 
     45 CA        -50.8115  -29.3577   15.2285 C.3       8 UNK         0.0248 
     46 CB        -52.1571  -29.9184   15.7209 C.3       8 UNK        -0.2001 
     47 N         -50.5848  -29.7569   13.8454 N.am      8 UNK        -0.4140 
     48 C         -49.4790  -30.3565   13.3902 C.2       8 UNK         0.5028 
     49 O         -48.5982  -30.8241   14.1137 O.2       8 UNK        -0.5428 
     50 CA        -49.3005  -30.4037   11.8621 C.3       7 UNK         0.0264 
     51 CB        -49.9200  -31.6819   11.2763 C.3       7 UNK        -0.1988 
     52 N         -49.8347  -29.2254   11.1655 N.am      7 UNK        -0.4454 
     53 C         -49.3736  -27.9744   11.3288 C.2       7 UNK         0.5027 
     54 O         -48.4765  -27.6835   12.1231 O.2       7 UNK        -0.5083 
     55 CA        -50.0051  -26.9006   10.4203 C.3       6 UNK         0.0844 
     56 C56       -51.4586  -26.5360   10.8271 C.3       14 UNK        -0.0967 
     57 S57       -52.2797  -25.6146    9.4749 S.3       14 UNK        -0.2604 
     58 C58       -53.6108  -26.7236    8.8958 C.3       14 UNK         0.0134 
     59 N         -49.1349  -25.7306   10.2519 N.am      6 UNK        -0.4116 
     60 C         -48.8792  -24.7413   11.1208 C.2       5 UNK         0.5034 
     61 O         -49.3441  -24.6591   12.2583 O.2       5 UNK        -0.5045 
     62 CA        -47.9828  -23.6045   10.5997 C.3       5 UNK         0.0224 
     63 CB        -46.4947  -23.9873   10.6423 C.3       5 UNK        -0.1978 
     64 N         -48.3578  -23.1873    9.2439 N.am      5 UNK        -0.4737 
     65 C         -49.4832  -22.5104    8.9603 C.2       4 UNK         0.5027 
     66 O         -50.2678  -22.1164    9.8247 O.2       4 UNK        -0.5211 
     67 CA        -49.7929  -22.2267    7.4739 C.3       4 UNK         0.0297 
     68 CB        -50.7160  -21.0049    7.2770 C.3       4 UNK        -0.1993 
     69 N         -48.5971  -22.1175    6.6308 N.am      4 UNK        -0.4486 
     70 C         -47.5849  -21.2442    6.7510 C.2       3 UNK         0.4961 
     71 O         -47.5725  -20.3156    7.5605 O.2       3 UNK        -0.5105 
     72 CA        -46.3754  -21.4486    5.8106 C.3       3 UNK         0.0299 
     73 CB        -45.0456  -21.0536    6.4883 C.3       3 UNK        -0.1972 
     74 N         -46.2664  -22.7974    5.2275 N.am      3 UNK        -0.4305 
     75 C         -46.1572  -23.9594    5.8893 C.2       2 UNK         0.5006 
     76 O         -46.1883  -24.0609    7.1187 O.2       2 UNK        -0.5106 
     77 CA        -45.9995  -25.2146    5.0243 C.3       2 UNK         0.0296 
     78 CB        -44.5425  -25.3817    4.5547 C.3       2 UNK        -0.2002 
     79 N         -46.4052  -26.3765    5.8066 N.am      2 UNK        -0.4032 
     80 C         -46.8471  -27.5447    5.3302 C.2       1 UNK         0.5000 
     81 O         -46.9666  -27.7779    4.1255 O.2       1 UNK        -0.5238 
     82 H82       -44.8490  -27.1418    9.8871 H         1 UNK         0.0889 
     83 H83       -44.9741  -28.8936    9.6982 H         1 UNK         0.0889 
     84 H84       -46.1508  -28.0255   10.6862 H         1 UNK         0.0889 
     85 H85       -45.7367  -29.4128    7.6631 H         1 UNK         0.3028 
     86 H86       -46.9087  -29.5903    5.8440 H         1 UNK         0.0864 
     87 H87       -49.0839  -27.8555    7.1329 H         1 UNK         0.0720 
     88 H88       -49.2566  -28.7625    5.6535 H         1 UNK         0.0720 
     89 H89       -50.9834  -31.6324    6.8802 H         1 UNK         0.0814 
     90 H90       -51.0363  -30.1298    6.0073 H         1 UNK         0.0814 
     91 H91       -51.8090  -27.9952    7.2553 H         1 UNK         0.1469 
     92 H92       -54.5550  -28.7181   10.4651 H         1 UNK         0.1381 
     93 H93       -52.1712  -31.9275    8.9407 H         1 UNK         0.1206 
     94 H94       -55.1521  -31.3360   10.7003 H         1 UNK         0.0813 
     95 H95       -53.7601  -32.3889   10.6604 H         1 UNK         0.0813 
     96 H96       -55.0723  -30.8826   14.4245 H         1 UNK         0.0638 
     97 H97       -55.8093  -31.6914   13.0675 H         1 UNK         0.0638 
     98 H98       -56.2699  -29.5406   11.9634 H         1 UNK         0.0568 
     99 H99       -58.7157  -28.5500   14.9492 H         1 UNK         0.3450 
    100 H100      -57.2113  -27.7096   14.6722 H         1 UNK         0.3450 
    101 H101      -54.5487  -28.3499   13.9901 H         1 UNK         0.2987 
    102 H102      -53.6019  -26.1073   12.6680 H         1 UNK         0.0766 
    103 H103      -55.1514  -24.5292   11.5721 H         1 UNK         0.0798 
    104 H104      -54.4347  -23.7710   12.9836 H         1 UNK         0.0798 
    105 H105      -56.0926  -24.3680   13.0499 H         1 UNK         0.0798 
    106 H106      -53.3620  -26.0268   14.8524 H         1 UNK         0.3198 
    107 H107      -55.5054  -25.3057   17.5924 H         1 UNK         0.0843 
    108 H108      -53.7155  -27.7370   17.0512 H         1 UNK         0.0831 
    109 H109      -55.4100  -27.8144   17.5164 H         1 UNK         0.0831 
    110 H110      -54.2260  -27.1574   18.6353 H         1 UNK         0.0831 
    111 H111      -52.6494  -25.5262   17.3459 H         1 UNK         0.3133 
    112 H112      -52.0138  -22.1960   16.3065 H         1 UNK         0.0566 
    113 H113      -50.6108  -22.1792   18.3625 H         1 UNK         0.0814 
    114 H114      -51.5567  -23.5048   19.0383 H         1 UNK         0.0814 
    115 H115      -52.3102  -21.9487   18.7406 H         1 UNK         0.0814 
    116 H116      -50.5850  -23.5882   15.4158 H         1 UNK         0.3091 
    117 H117      -49.5602  -25.4062   14.7761 H         1 UNK         0.0702 
    118 H118      -47.2798  -25.9863   15.5771 H         1 UNK         0.0785 
    119 H119      -47.8310  -25.9541   17.2539 H         1 UNK         0.0785 
    120 H120      -47.8021  -24.4755   16.3025 H         1 UNK         0.0785 
    121 H121      -48.9325  -27.8455   16.0491 H         1 UNK         0.2998 
    122 H122      -50.0240  -29.7367   15.8834 H         1 UNK         0.0697 
    123 H123      -53.0021  -29.5035   15.1723 H         1 UNK         0.0825 
    124 H124      -52.3069  -29.6902   16.7763 H         1 UNK         0.0825 
    125 H125      -52.1944  -31.0028   15.6159 H         1 UNK         0.0825 
    126 H126      -51.2431  -29.3944   13.1706 H         1 UNK         0.3029 
    127 H127      -48.2263  -30.4332   11.6663 H         1 UNK         0.0897 
    128 H128      -51.0000  -31.7093   11.4150 H         1 UNK         0.0792 
    129 H129      -49.5085  -32.5699   11.7577 H         1 UNK         0.0792 
    130 H130      -49.7156  -31.7702   10.2093 H         1 UNK         0.0792 
    131 H131      -50.5508  -29.3995   10.4722 H         1 UNK         0.3086 
    132 H132      -50.0431  -27.3563    9.4295 H         1 UNK         0.0583 
    133 H133      -52.0364  -27.4225   11.0850 H         1 UNK         0.1020 
    134 H134      -51.4694  -25.9232   11.7285 H         1 UNK         0.1020 
    135 H135      -54.4827  -26.5723    9.5343 H         1 UNK         0.0694 
    136 H136      -53.9141  -26.4150    7.8946 H         1 UNK         0.0694 
    137 H137      -48.5764  -25.7528    9.4041 H         1 UNK         0.2989 
    138 H138      -48.1236  -22.7509   11.2670 H         1 UNK         0.1055 
    139 H139      -46.2584  -24.7876    9.9424 H         1 UNK         0.0806 
    140 H140      -46.2071  -24.3277   11.6379 H         1 UNK         0.0806 
    141 H141      -45.8621  -23.1351   10.3935 H         1 UNK         0.0806 
    142 H142      -47.7400  -23.4662    8.4884 H         1 UNK         0.3061 
    143 H143      -50.3339  -23.1042    7.1161 H         1 UNK         0.0734 
    144 H144      -50.2725  -20.0939    7.6798 H         1 UNK         0.0832 
    145 H145      -50.9329  -20.8357    6.2224 H         1 UNK         0.0832 
    146 H146      -51.6715  -21.1508    7.7824 H         1 UNK         0.0832 
    147 H147      -48.4947  -22.8370    5.9293 H         1 UNK         0.3156 
    148 H148      -46.5324  -20.7687    4.9720 H         1 UNK         0.0589 
    149 H149      -44.2010  -21.1816    5.8114 H         1 UNK         0.0808 
    150 H150      -45.0547  -20.0070    6.7954 H         1 UNK         0.0808 
    151 H151      -44.8547  -21.6519    7.3800 H         1 UNK         0.0808 
    152 H152      -46.2488  -22.8272    4.2166 H         1 UNK         0.3098 
    153 H153      -46.6573  -25.1208    4.1575 H         1 UNK         0.0720 
    154 H154      -44.2130  -24.5193    3.9739 H         1 UNK         0.0791 
    155 H155      -44.4277  -26.2602    3.9195 H         1 UNK         0.0791 
    156 H156      -43.8597  -25.4881    5.3987 H         1 UNK         0.0791 
    157 H157      -46.4333  -26.2266    6.8140 H         1 UNK         0.3028 
@<TRIPOS>BOND
     1    1    2 1    
     2    1   82 1    
     3    1   83 1    
     4    1   84 1    
     5    2    3 2    
     6    2    4 am   BACKBONE|DICT|INTERRES
     7    4    5 1    
     8    4   85 1    
     9    5    6 1    
    10    5   80 1    
    11    5   86 1    
    12    6    7 1    
    13    6   87 1    
    14    6   88 1    
    15    7    8 1    
    16    8    9 1    
    17    8   89 1    
    18    8   90 1    
    19    9   10 ar   
    20    9   14 ar   
    21   10   11 ar   
    22   10   91 1    
    23   11   12 ar   
    24   11   58 1    
    25   12   13 ar   
    26   12   92 1    
    27   13   14 ar   
    28   13   15 1    
    29   14   93 1    
    30   15   16 1    
    31   15   94 1    
    32   15   95 1    
    33   16   17 1    
    34   17   18 1    
    35   17   96 1    
    36   17   97 1    
    37   18   19 1    
    38   18   22 1    
    39   18   98 1    
    40   19   20 am   BACKBONE|DICT|INTERRES
    41   19   21 2    
    42   20   99 1    
    43   20  100 1    
    44   22   23 am   BACKBONE|DICT|INTERRES
    45   22  101 1    
    46   23   24 2    
    47   23   25 1    
    48   25   26 1    
    49   25   27 1    
    50   25  102 1    
    51   26  103 1    
    52   26  104 1    
    53   26  105 1    
    54   27   28 am   BACKBONE|DICT|INTERRES
    55   27  106 1    
    56   28   29 2    
    57   28   30 1    
    58   30   31 1    
    59   30   32 1    
    60   30  107 1    
    61   31  108 1    
    62   31  109 1    
    63   31  110 1    
    64   32   33 am   BACKBONE|DICT|INTERRES
    65   32  111 1    
    66   33   34 2    
    67   33   35 1    
    68   35   36 1    
    69   35   37 1    
    70   35  112 1    
    71   36  113 1    
    72   36  114 1    
    73   36  115 1    
    74   37   38 am   BACKBONE|DICT|INTERRES
    75   37  116 1    
    76   38   39 2    
    77   38   40 1    
    78   40   41 1    
    79   40   42 1    
    80   40  117 1    
    81   41  118 1    
    82   41  119 1    
    83   41  120 1    
    84   42   43 am   BACKBONE|DICT|INTERRES
    85   42  121 1    
    86   43   44 2    
    87   43   45 1    
    88   45   46 1    
    89   45   47 1    
    90   45  122 1    
    91   46  123 1    
    92   46  124 1    
    93   46  125 1    
    94   47   48 am   BACKBONE|DICT|INTERRES
    95   47  126 1    
    96   48   49 2    
    97   48   50 1    
    98   50   51 1    
    99   50   52 1    
   100   50  127 1    
   101   51  128 1    
   102   51  129 1    
   103   51  130 1    
   104   52   53 am   BACKBONE|DICT|INTERRES
   105   52  131 1    
   106   53   54 2    
   107   53   55 1    
   108   55   56 1    
   109   55   59 1    
   110   55  132 1    
   111   56   57 1    
   112   56  133 1    
   113   56  134 1    
   114   57   58 1    
   115   58  135 1    
   116   58  136 1    
   117   59   60 am   BACKBONE|DICT|INTERRES
   118   59  137 1    
   119   60   61 2    
   120   60   62 1    
   121   62   63 1    
   122   62   64 1    
   123   62  138 1    
   124   63  139 1    
   125   63  140 1    
   126   63  141 1    
   127   64   65 am   BACKBONE|DICT|INTERRES
   128   64  142 1    
   129   65   66 2    
   130   65   67 1    
   131   67   68 1    
   132   67   69 1    
   133   67  143 1    
   134   68  144 1    
   135   68  145 1    
   136   68  146 1    
   137   69   70 am   BACKBONE|DICT|INTERRES
   138   69  147 1    
   139   70   71 2    
   140   70   72 1    
   141   72   73 1    
   142   72   74 1    
   143   72  148 1    
   144   73  149 1    
   145   73  150 1    
   146   73  151 1    
   147   74   75 am   BACKBONE|DICT|INTERRES
   148   74  152 1    
   149   75   76 2    
   150   75   77 1    
   151   77   78 1    
   152   77   79 1    
   153   77  153 1    
   154   78  154 1    
   155   78  155 1    
   156   78  156 1    
   157   79   80 am   BACKBONE|DICT|INTERRES
   158   79  157 1    
   159   80   81 2    
@<TRIPOS>SUBSTRUCTURE
     1 UNK         1 GROUP             0       ****    0 ROOT    
