@<TRIPOS>MOLECULE
3R207
157   159    1
SMALL
USER_CHARGES


@<TRIPOS>ATOM
      1 CA        -47.3308  -29.0884    1.7697 C.3       0 UNK        -0.1975 
      2 C         -48.2242  -28.0402    2.4161 C.2       0 UNK         0.4852 
      3 O         -48.2048  -26.8809    2.0010 O.2       0 UNK        -0.5216 
      4 N         -49.0076  -28.4402    3.4270 N.am      1 UNK        -0.4461 
      5 CA        -49.9327  -27.5758    4.1706 C.3       1 UNK         0.0864 
      6 C6        -50.8458  -28.3931    5.1118 C.3       14 UNK        -0.0898 
      7 S7        -52.0283  -29.4763    4.2402 S.3       14 UNK        -0.2598 
      8 C8        -52.3826  -30.7779    5.4785 C.3       14 UNK         0.0286 
      9 C9        -52.3639  -30.2578    6.9114 C.ar      14 UNK        -0.0844 
     10 C10       -51.2917  -30.5743    7.7517 C.ar      14 UNK        -0.0881 
     11 C11       -51.2044  -30.0214    9.0310 C.ar      14 UNK        -0.0643 
     12 C12       -52.2151  -29.1654    9.4767 C.ar      14 UNK        -0.0930 
     13 C13       -53.3062  -28.8602    8.6591 C.ar      14 UNK        -0.0827 
     14 C14       -53.3783  -29.4145    7.3769 C.ar      14 UNK        -0.1249 
     15 C15       -54.3758  -27.8868    9.1354 C.3       14 UNK         0.0141 
     16 S16       -55.8579  -28.7398    9.7560 S.3       14 UNK        -0.2313 
     17 C17       -55.4288  -29.0672   11.5020 C.3       14 UNK        -0.0915 
     18 CA        -55.9946  -27.9951   12.4839 C.3       13 UNK         0.0968 
     19 C         -57.5271  -28.1118   12.7703 C.2       13 UNK         0.5732 
     20 N         -58.0158  -27.6335   13.9101 N.am      13 UNK        -0.7310 
     21 O         -58.2937  -28.6197   11.9557 O.2       13 UNK        -0.5035 
     22 N         -55.1795  -27.8648   13.7034 N.am      13 UNK        -0.4233 
     23 C         -55.0205  -28.8086   14.6457 C.2       13 UNK         0.4989 
     24 O         -55.4629  -29.9534   14.5439 O.2       13 UNK        -0.4996 
     25 CA        -54.2558  -28.4291   15.9314 C.3       12 UNK         0.0216 
     26 CB        -53.0068  -29.3058   16.1173 C.3       12 UNK        -0.1964 
     27 N         -53.8820  -27.0118   16.0013 N.am      12 UNK        -0.4276 
     28 C         -54.7387  -26.0292   16.3127 C.2       12 UNK         0.5020 
     29 O         -55.9219  -26.2197   16.5985 O.2       12 UNK        -0.5489 
     30 CA        -54.2036  -24.5907   16.2458 C.3       11 UNK         0.0294 
     31 CB        -53.4775  -24.2256   17.5492 C.3       11 UNK        -0.2019 
     32 N         -53.3181  -24.3506   15.1021 N.am      11 UNK        -0.4493 
     33 C         -53.6864  -24.4362   13.8138 C.2       11 UNK         0.4932 
     34 O         -54.8089  -24.8003   13.4606 O.2       11 UNK        -0.5029 
     35 CA        -52.6403  -24.1053   12.7285 C.3       10 UNK         0.0280 
     36 CB        -53.2538  -23.3509   11.5308 C.3       10 UNK        -0.1976 
     37 N         -51.4395  -23.4222   13.2212 N.am      10 UNK        -0.4242 
     38 C         -51.3489  -22.2051   13.7843 C.2       10 UNK         0.5072 
     39 O         -52.3001  -21.4326   13.9102 O.2       10 UNK        -0.5224 
     40 CA        -49.9561  -21.8001   14.3176 C.3       9 UNK         0.0343 
     41 CB        -50.0274  -20.7305   15.4296 C.3       9 UNK        -0.2003 
     42 N         -49.1570  -22.9605   14.7440 N.am      9 UNK        -0.4272 
     43 C         -49.4690  -23.8146   15.7293 C.2       9 UNK         0.4988 
     44 O         -50.4459  -23.6786   16.4667 O.2       9 UNK        -0.5108 
     45 CA        -48.5672  -25.0537   15.8641 C.3       8 UNK         0.0248 
     46 CB        -48.5465  -25.5993   17.3072 C.3       8 UNK        -0.2001 
     47 N         -48.9371  -26.1194   14.9212 N.am      8 UNK        -0.4140 
     48 C         -50.1297  -26.7266   14.7883 C.2       8 UNK         0.5028 
     49 O         -51.1353  -26.4366   15.4376 O.2       8 UNK        -0.5428 
     50 CA        -50.2250  -27.8902   13.7889 C.3       7 UNK         0.0264 
     51 CB        -51.5215  -27.8637   12.9579 C.3       7 UNK        -0.1988 
     52 N         -49.0735  -27.9694   12.8884 N.am      7 UNK        -0.4454 
     53 C         -48.2261  -29.0064   12.8372 C.2       7 UNK         0.5027 
     54 O         -48.3281  -30.0068   13.5496 O.2       7 UNK        -0.5083 
     55 CA        -47.0564  -28.9353   11.8352 C.3       6 UNK         0.0844 
     56 C56       -47.2920  -29.8408   10.5983 C.3       14 UNK        -0.0967 
     57 S57       -48.5912  -29.2702    9.4533 S.3       14 UNK        -0.2604 
     58 C58       -50.0005  -30.3262    9.9097 C.3       14 UNK         0.0134 
     59 N         -46.6273  -27.5705   11.4956 N.am      6 UNK        -0.4116 
     60 C         -46.0043  -26.7555   12.3628 C.2       5 UNK         0.5034 
     61 O         -45.8896  -26.9949   13.5652 O.2       5 UNK        -0.5045 
     62 CA        -45.3981  -25.4623   11.8046 C.3       5 UNK         0.0224 
     63 CB        -44.2883  -25.7597   10.7805 C.3       5 UNK        -0.1978 
     64 N         -46.4254  -24.6312   11.1893 N.am      5 UNK        -0.4737 
     65 C         -47.1173  -23.6812   11.8307 C.2       4 UNK         0.5027 
     66 O         -46.9439  -23.3760   13.0109 O.2       4 UNK        -0.5211 
     67 CA        -48.2239  -22.9700   11.0318 C.3       4 UNK         0.0297 
     68 CB        -47.6627  -21.7374   10.3075 C.3       4 UNK        -0.1993 
     69 N         -48.8974  -23.8422   10.0721 N.am      4 UNK        -0.4486 
     70 C         -49.5440  -24.9703   10.3937 C.2       3 UNK         0.4961 
     71 O         -49.7058  -25.3613   11.5505 O.2       3 UNK        -0.5105 
     72 CA        -50.0434  -25.8310    9.2252 C.3       3 UNK         0.0299 
     73 CB        -51.4948  -25.4741    8.8743 C.3       3 UNK        -0.1972 
     74 N         -49.2127  -25.7501    8.0158 N.am      3 UNK        -0.4305 
     75 C         -47.9004  -26.0179    7.9224 C.2       2 UNK         0.5006 
     76 O         -47.1875  -26.2769    8.8951 O.2       2 UNK        -0.5106 
     77 CA        -47.2865  -25.9895    6.5048 C.3       2 UNK         0.0296 
     78 CB        -45.8120  -26.4354    6.4960 C.3       2 UNK        -0.2002 
     79 N         -48.0389  -26.8205    5.5578 N.am      2 UNK        -0.4032 
     80 C         -49.2165  -26.4942    5.0046 C.2       1 UNK         0.5000 
     81 O         -49.7699  -25.4078    5.1883 O.2       1 UNK        -0.5238 
     82 H82       -47.5680  -29.1812    0.7102 H         1 UNK         0.0889 
     83 H83       -47.4516  -30.0685    2.2307 H         1 UNK         0.0889 
     84 H84       -46.2847  -28.7974    1.8607 H         1 UNK         0.0889 
     85 H85       -49.0049  -29.4126    3.7008 H         1 UNK         0.3028 
     86 H86       -50.5603  -27.0545    3.4444 H         1 UNK         0.0864 
     87 H87       -51.4381  -27.7340    5.7511 H         1 UNK         0.0720 
     88 H88       -50.2280  -28.9937    5.7810 H         1 UNK         0.0720 
     89 H89       -51.6547  -31.5814    5.3558 H         1 UNK         0.0814 
     90 H90       -53.3574  -31.2178    5.2634 H         1 UNK         0.0814 
     91 H91       -50.4973  -31.2163    7.3961 H         1 UNK         0.1469 
     92 H92       -52.1448  -28.7174   10.4527 H         1 UNK         0.1381 
     93 H93       -54.2045  -29.1608    6.7266 H         1 UNK         0.1206 
     94 H94       -54.6677  -27.2417    8.3054 H         1 UNK         0.0813 
     95 H95       -53.9849  -27.2229    9.9079 H         1 UNK         0.0813 
     96 H96       -55.7876  -30.0623   11.7697 H         1 UNK         0.0638 
     97 H97       -54.3422  -29.1161   11.5804 H         1 UNK         0.0638 
     98 H98       -55.8866  -27.0270   11.9940 H         1 UNK         0.0568 
     99 H99       -59.0049  -27.7050   14.0886 H         1 UNK         0.3450 
    100 H100      -57.4092  -27.2028   14.5917 H         1 UNK         0.3450 
    101 H101      -54.8348  -26.9310   13.8870 H         1 UNK         0.2987 
    102 H102      -54.9258  -28.6403   16.7676 H         1 UNK         0.0766 
    103 H103      -52.3501  -29.2619   15.2521 H         1 UNK         0.0798 
    104 H104      -53.2849  -30.3516   16.2537 H         1 UNK         0.0798 
    105 H105      -52.4326  -29.0062   16.9943 H         1 UNK         0.0798 
    106 H106      -52.9122  -26.7682   15.7913 H         1 UNK         0.3198 
    107 H107      -55.0627  -23.9252   16.1375 H         1 UNK         0.0843 
    108 H108      -53.1485  -23.1862   17.5431 H         1 UNK         0.0831 
    109 H109      -52.5984  -24.8522   17.7078 H         1 UNK         0.0831 
    110 H110      -54.1321  -24.3553   18.4120 H         1 UNK         0.0831 
    111 H111      -52.3543  -24.1245   15.3224 H         1 UNK         0.3133 
    112 H112      -52.2949  -25.0684   12.3563 H         1 UNK         0.0566 
    113 H113      -54.0331  -23.9443   11.0511 H         1 UNK         0.0814 
    114 H114      -53.7075  -22.4077   11.8361 H         1 UNK         0.0814 
    115 H115      -52.5022  -23.1318   10.7725 H         1 UNK         0.0814 
    116 H116      -50.5924  -23.9729   13.1527 H         1 UNK         0.3091 
    117 H117      -49.4245  -21.3444   13.4830 H         1 UNK         0.0702 
    118 H118      -49.0346  -20.4783   15.8019 H         1 UNK         0.0785 
    119 H119      -50.6303  -21.0603   16.2761 H         1 UNK         0.0785 
    120 H120      -50.4754  -19.8092   15.0555 H         1 UNK         0.0785 
    121 H121      -48.3218  -23.1476   14.1891 H         1 UNK         0.2998 
    122 H122      -47.5501  -24.7493   15.6111 H         1 UNK         0.0697 
    123 H123      -47.8484  -26.4304   17.4064 H         1 UNK         0.0825 
    124 H124      -48.2349  -24.8262   18.0105 H         1 UNK         0.0825 
    125 H125      -49.5297  -25.9486   17.6253 H         1 UNK         0.0825 
    126 H126      -48.1832  -26.4545   14.3365 H         1 UNK         0.3029 
    127 H127      -50.2658  -28.7769   14.4233 H         1 UNK         0.0897 
    128 H128      -51.7658  -28.8693   12.6190 H         1 UNK         0.0792 
    129 H129      -52.3785  -27.5124   13.5292 H         1 UNK         0.0792 
    130 H130      -51.4335  -27.2216   12.0835 H         1 UNK         0.0792 
    131 H131      -48.9447  -27.1794   12.2639 H         1 UNK         0.3086 
    132 H132      -46.2109  -29.3828   12.3632 H         1 UNK         0.0583 
    133 H133      -46.3651  -29.9069   10.0267 H         1 UNK         0.1020 
    134 H134      -47.5053  -30.8653   10.9100 H         1 UNK         0.1020 
    135 H135      -49.7211  -31.3755    9.8035 H         1 UNK         0.0694 
    136 H136      -50.2492  -30.1739   10.9607 H         1 UNK         0.0694 
    137 H137      -46.7495  -27.2760   10.5300 H         1 UNK         0.2989 
    138 H138      -44.9418  -24.9233   12.6385 H         1 UNK         0.1055 
    139 H139      -44.6668  -26.2749    9.8970 H         1 UNK         0.0806 
    140 H140      -43.5129  -26.3899   11.2182 H         1 UNK         0.0806 
    141 H141      -43.8064  -24.8409   10.4463 H         1 UNK         0.0806 
    142 H142      -46.7029  -24.8880   10.2471 H         1 UNK         0.3061 
    143 H143      -48.9829  -22.6361   11.7355 H         1 UNK         0.0734 
    144 H144      -48.4520  -21.1752    9.8081 H         1 UNK         0.0832 
    145 H145      -47.1804  -21.0583   11.0122 H         1 UNK         0.0832 
    146 H146      -46.9183  -22.0120    9.5590 H         1 UNK         0.0832 
    147 H147      -48.8120  -23.6056    9.0945 H         1 UNK         0.3156 
    148 H148      -50.0320  -26.8654    9.5656 H         1 UNK         0.0589 
    149 H149      -51.5825  -24.4543    8.4979 H         1 UNK         0.0808 
    150 H150      -51.8950  -26.1485    8.1169 H         1 UNK         0.0808 
    151 H151      -52.1377  -25.5569    9.7511 H         1 UNK         0.0808 
    152 H152      -49.6916  -25.5250    7.1487 H         1 UNK         0.3098 
    153 H153      -47.3211  -24.9531    6.1627 H         1 UNK         0.0720 
    154 H154      -45.2066  -25.7994    7.1434 H         1 UNK         0.0791 
    155 H155      -45.6991  -27.4612    6.8498 H         1 UNK         0.0791 
    156 H156      -45.3842  -26.3750    5.4952 H         1 UNK         0.0791 
    157 H157      -47.6731  -27.7449    5.3816 H         1 UNK         0.3028 
@<TRIPOS>BOND
     1    1    2 1    
     2    1   82 1    
     3    1   83 1    
     4    1   84 1    
     5    2    3 2    
     6    2    4 am   BACKBONE|DICT|INTERRES
     7    4    5 1    
     8    4   85 1    
     9    5    6 1    
    10    5   80 1    
    11    5   86 1    
    12    6    7 1    
    13    6   87 1    
    14    6   88 1    
    15    7    8 1    
    16    8    9 1    
    17    8   89 1    
    18    8   90 1    
    19    9   10 ar   
    20    9   14 ar   
    21   10   11 ar   
    22   10   91 1    
    23   11   12 ar   
    24   11   58 1    
    25   12   13 ar   
    26   12   92 1    
    27   13   14 ar   
    28   13   15 1    
    29   14   93 1    
    30   15   16 1    
    31   15   94 1    
    32   15   95 1    
    33   16   17 1    
    34   17   18 1    
    35   17   96 1    
    36   17   97 1    
    37   18   19 1    
    38   18   22 1    
    39   18   98 1    
    40   19   20 am   BACKBONE|DICT|INTERRES
    41   19   21 2    
    42   20   99 1    
    43   20  100 1    
    44   22   23 am   BACKBONE|DICT|INTERRES
    45   22  101 1    
    46   23   24 2    
    47   23   25 1    
    48   25   26 1    
    49   25   27 1    
    50   25  102 1    
    51   26  103 1    
    52   26  104 1    
    53   26  105 1    
    54   27   28 am   BACKBONE|DICT|INTERRES
    55   27  106 1    
    56   28   29 2    
    57   28   30 1    
    58   30   31 1    
    59   30   32 1    
    60   30  107 1    
    61   31  108 1    
    62   31  109 1    
    63   31  110 1    
    64   32   33 am   BACKBONE|DICT|INTERRES
    65   32  111 1    
    66   33   34 2    
    67   33   35 1    
    68   35   36 1    
    69   35   37 1    
    70   35  112 1    
    71   36  113 1    
    72   36  114 1    
    73   36  115 1    
    74   37   38 am   BACKBONE|DICT|INTERRES
    75   37  116 1    
    76   38   39 2    
    77   38   40 1    
    78   40   41 1    
    79   40   42 1    
    80   40  117 1    
    81   41  118 1    
    82   41  119 1    
    83   41  120 1    
    84   42   43 am   BACKBONE|DICT|INTERRES
    85   42  121 1    
    86   43   44 2    
    87   43   45 1    
    88   45   46 1    
    89   45   47 1    
    90   45  122 1    
    91   46  123 1    
    92   46  124 1    
    93   46  125 1    
    94   47   48 am   BACKBONE|DICT|INTERRES
    95   47  126 1    
    96   48   49 2    
    97   48   50 1    
    98   50   51 1    
    99   50   52 1    
   100   50  127 1    
   101   51  128 1    
   102   51  129 1    
   103   51  130 1    
   104   52   53 am   BACKBONE|DICT|INTERRES
   105   52  131 1    
   106   53   54 2    
   107   53   55 1    
   108   55   56 1    
   109   55   59 1    
   110   55  132 1    
   111   56   57 1    
   112   56  133 1    
   113   56  134 1    
   114   57   58 1    
   115   58  135 1    
   116   58  136 1    
   117   59   60 am   BACKBONE|DICT|INTERRES
   118   59  137 1    
   119   60   61 2    
   120   60   62 1    
   121   62   63 1    
   122   62   64 1    
   123   62  138 1    
   124   63  139 1    
   125   63  140 1    
   126   63  141 1    
   127   64   65 am   BACKBONE|DICT|INTERRES
   128   64  142 1    
   129   65   66 2    
   130   65   67 1    
   131   67   68 1    
   132   67   69 1    
   133   67  143 1    
   134   68  144 1    
   135   68  145 1    
   136   68  146 1    
   137   69   70 am   BACKBONE|DICT|INTERRES
   138   69  147 1    
   139   70   71 2    
   140   70   72 1    
   141   72   73 1    
   142   72   74 1    
   143   72  148 1    
   144   73  149 1    
   145   73  150 1    
   146   73  151 1    
   147   74   75 am   BACKBONE|DICT|INTERRES
   148   74  152 1    
   149   75   76 2    
   150   75   77 1    
   151   77   78 1    
   152   77   79 1    
   153   77  153 1    
   154   78  154 1    
   155   78  155 1    
   156   78  156 1    
   157   79   80 am   BACKBONE|DICT|INTERRES
   158   79  157 1    
   159   80   81 2    
@<TRIPOS>SUBSTRUCTURE
     1 UNK         1 GROUP             0       ****    0 ROOT    
