@<TRIPOS>MOLECULE
3R207
157   159    1
SMALL
USER_CHARGES


@<TRIPOS>ATOM
      1 CA        -51.0541  -32.6235    6.3837 C.3       0 UNK        -0.1975 
      2 C         -50.6367  -31.5154    5.4291 C.2       0 UNK         0.4852 
      3 O         -49.7376  -31.7183    4.6127 O.2       0 UNK        -0.5216 
      4 N         -51.2889  -30.3480    5.5206 N.am      1 UNK        -0.4461 
      5 CA        -51.0713  -29.1853    4.6474 C.3       1 UNK         0.0864 
      6 C6        -52.2272  -28.1452    4.7118 C.3       14 UNK        -0.0898 
      7 S7        -53.8899  -28.8991    4.8818 S.3       14 UNK        -0.2598 
      8 C8        -54.5045  -28.2733    6.4882 C.3       14 UNK         0.0286 
      9 C9        -53.4440  -28.2431    7.5832 C.ar      14 UNK        -0.0844 
     10 C10       -52.9565  -27.0138    8.0387 C.ar      14 UNK        -0.0881 
     11 C11       -51.9743  -26.9623    9.0291 C.ar      14 UNK        -0.0643 
     12 C12       -51.4611  -28.1514    9.5505 C.ar      14 UNK        -0.0930 
     13 C13       -51.9440  -29.3865    9.1109 C.ar      14 UNK        -0.0827 
     14 C14       -52.9490  -29.4281    8.1381 C.ar      14 UNK        -0.1249 
     15 C15       -51.3599  -30.6678    9.6849 C.3       14 UNK         0.0141 
     16 S16       -51.9561  -30.9939   11.3707 S.3       14 UNK        -0.2313 
     17 C17       -53.6508  -31.6032   11.0627 C.3       14 UNK        -0.0915 
     18 CA        -54.7822  -30.7260   11.6614 C.3       13 UNK         0.0968 
     19 C         -54.7375  -30.6615   13.2142 C.2       13 UNK         0.5732 
     20 N         -55.1470  -31.7261   13.8899 N.am      13 UNK        -0.7310 
     21 O         -54.3175  -29.6687   13.8105 O.2       13 UNK        -0.5035 
     22 N         -54.7989  -29.3790   11.0821 N.am      13 UNK        -0.4233 
     23 C         -55.9120  -28.6682   10.8717 C.2       13 UNK         0.4989 
     24 O         -57.0494  -29.1442   10.8795 O.2       13 UNK        -0.4996 
     25 CA        -55.7036  -27.1547   10.6929 C.3       12 UNK         0.0216 
     26 CB        -56.9626  -26.4168   10.1909 C.3       12 UNK        -0.1964 
     27 N         -55.1898  -26.5545   11.9320 N.am      12 UNK        -0.4276 
     28 C         -55.7710  -26.5441   13.1429 C.2       12 UNK         0.5020 
     29 O         -56.9063  -26.9618   13.3774 O.2       12 UNK        -0.5489 
     30 CA        -54.8969  -26.0263   14.2929 C.3       11 UNK         0.0294 
     31 CB        -55.6432  -25.9314   15.6386 C.3       11 UNK        -0.2019 
     32 N         -53.7487  -26.9190   14.4211 N.am      11 UNK        -0.4493 
     33 C         -52.5281  -26.5523   14.8198 C.2       11 UNK         0.4932 
     34 O         -52.2483  -25.4222   15.2254 O.2       11 UNK        -0.5029 
     35 CA        -51.4432  -27.6325   14.7104 C.3       10 UNK         0.0280 
     36 CB        -51.1256  -27.9311   13.2350 C.3       10 UNK        -0.1976 
     37 N         -50.2108  -27.2038   15.3717 N.am      10 UNK        -0.4242 
     38 C         -49.7530  -27.6804   16.5330 C.2       10 UNK         0.5072 
     39 O         -50.3218  -28.5471   17.1994 O.2       10 UNK        -0.5224 
     40 CA        -48.4118  -27.1130   17.0275 C.3       9 UNK         0.0343 
     41 CB        -47.2389  -27.7829   16.2913 C.3       9 UNK        -0.2003 
     42 N         -48.2923  -25.6566   16.9058 N.am      9 UNK        -0.4272 
     43 C         -48.9703  -24.7762   17.6555 C.2       9 UNK         0.4988 
     44 O         -49.8497  -25.0921   18.4574 O.2       9 UNK        -0.5108 
     45 CA        -48.5549  -23.3023   17.5515 C.3       8 UNK         0.0248 
     46 CB        -47.2514  -23.0661   18.3443 C.3       8 UNK        -0.2001 
     47 N         -48.4227  -22.8352   16.1670 N.am      8 UNK        -0.4140 
     48 C         -48.3804  -21.5379   15.8171 C.2       8 UNK         0.5028 
     49 O         -48.4364  -20.6112   16.6272 O.2       8 UNK        -0.5428 
     50 CA        -48.2558  -21.1902   14.3201 C.3       7 UNK         0.0264 
     51 CB        -46.7888  -20.9117   13.9563 C.3       7 UNK        -0.1988 
     52 N         -48.7840  -22.2288   13.4361 N.am      7 UNK        -0.4454 
     53 C         -50.0834  -22.5524   13.3415 C.2       7 UNK         0.5027 
     54 O         -50.9759  -21.8988   13.8833 O.2       7 UNK        -0.5083 
     55 CA        -50.4600  -23.8334   12.5646 C.3       6 UNK         0.0844 
     56 C56       -51.5561  -23.5878   11.5000 C.3       14 UNK        -0.0967 
     57 S57       -52.3836  -25.1462   11.0433 S.3       14 UNK        -0.2604 
     58 C58       -51.4789  -25.6239    9.5457 C.3       14 UNK         0.0134 
     59 N         -49.3008  -24.5414   12.0121 N.am      6 UNK        -0.4116 
     60 C         -48.4364  -25.2686   12.7332 C.2       5 UNK         0.5034 
     61 O         -48.5151  -25.3971   13.9545 O.2       5 UNK        -0.5045 
     62 CA        -47.2739  -25.9379   11.9819 C.3       5 UNK         0.0224 
     63 CB        -47.6292  -27.3966   11.6556 C.3       5 UNK        -0.1978 
     64 N         -46.8899  -25.2409   10.7498 N.am      5 UNK        -0.4737 
     65 C         -46.4229  -23.9849   10.6956 C.2       4 UNK         0.5027 
     66 O         -46.2418  -23.2837   11.6905 O.2       4 UNK        -0.5211 
     67 CA        -46.1568  -23.3986    9.2993 C.3       4 UNK         0.0297 
     68 CB        -44.6870  -23.6064    8.9028 C.3       4 UNK        -0.1993 
     69 N         -47.0232  -23.9451    8.2494 N.am      4 UNK        -0.4486 
     70 C         -48.3566  -23.8356    8.1965 C.2       3 UNK         0.4961 
     71 O         -49.0330  -23.3075    9.0785 O.2       3 UNK        -0.5105 
     72 CA        -49.0593  -24.4460    6.9703 C.3       3 UNK         0.0299 
     73 CB        -48.6561  -23.7314    5.6647 C.3       3 UNK        -0.1972 
     74 N         -48.9031  -25.9036    6.8657 N.am      3 UNK        -0.4305 
     75 C         -47.7819  -26.6093    6.6503 C.2       2 UNK         0.5006 
     76 O         -46.6665  -26.1082    6.5002 O.2       2 UNK        -0.5106 
     77 CA        -47.9175  -28.1402    6.6195 C.3       2 UNK         0.0296 
     78 CB        -47.6316  -28.7258    8.0124 C.3       2 UNK        -0.2002 
     79 N         -49.2239  -28.6197    6.1631 N.am      2 UNK        -0.4032 
     80 C         -49.7114  -28.5048    4.9172 C.2       1 UNK         0.5000 
     81 O         -49.1351  -27.9115    4.0041 O.2       1 UNK        -0.5238 
     82 H82       -51.1258  -33.5710    5.8501 H         1 UNK         0.0889 
     83 H83       -52.0248  -32.4236    6.8363 H         1 UNK         0.0889 
     84 H84       -50.3155  -32.7352    7.1769 H         1 UNK         0.0889 
     85 H85       -52.0378  -30.2367    6.1899 H         1 UNK         0.3028 
     86 H86       -51.0351  -29.5659    3.6241 H         1 UNK         0.0864 
     87 H87       -52.0667  -27.4224    5.5106 H         1 UNK         0.0720 
     88 H88       -52.2271  -27.5510    3.7963 H         1 UNK         0.0720 
     89 H89       -55.3382  -28.8969    6.8140 H         1 UNK         0.0814 
     90 H90       -54.9198  -27.2764    6.3325 H         1 UNK         0.0814 
     91 H91       -53.3477  -26.0928    7.6280 H         1 UNK         0.1469 
     92 H92       -50.6976  -28.1178   10.3144 H         1 UNK         0.1381 
     93 H93       -53.3407  -30.3791    7.8042 H         1 UNK         0.1206 
     94 H94       -50.2721  -30.5873    9.7085 H         1 UNK         0.0813 
     95 H95       -51.5862  -31.5242    9.0505 H         1 UNK         0.0813 
     96 H96       -53.7150  -32.6173   11.4604 H         1 UNK         0.0638 
     97 H97       -53.8096  -31.7069    9.9888 H         1 UNK         0.0638 
     98 H98       -55.7212  -31.2189   11.4027 H         1 UNK         0.0568 
     99 H99       -55.4846  -32.5495   13.4169 H         1 UNK         0.3450 
    100 H100      -55.1152  -31.7043   14.8968 H         1 UNK         0.3450 
    101 H101      -53.9029  -28.9152   11.0519 H         1 UNK         0.2987 
    102 H102      -54.9287  -27.0266    9.9383 H         1 UNK         0.0766 
    103 H103      -57.2943  -26.8248    9.2354 H         1 UNK         0.0798 
    104 H104      -56.7640  -25.3559   10.0399 H         1 UNK         0.0798 
    105 H105      -57.7962  -26.5058   10.8881 H         1 UNK         0.0798 
    106 H106      -54.2512  -26.1772   11.8632 H         1 UNK         0.3198 
    107 H107      -54.5567  -25.0265   14.0127 H         1 UNK         0.0843 
    108 H108      -55.9881  -26.9094   15.9764 H         1 UNK         0.0831 
    109 H109      -56.5177  -25.2850   15.5551 H         1 UNK         0.0831 
    110 H110      -55.0047  -25.5140   16.4173 H         1 UNK         0.0831 
    111 H111      -53.9084  -27.8857   14.1344 H         1 UNK         0.3133 
    112 H112      -51.8286  -28.5449   15.1704 H         1 UNK         0.0566 
    113 H113      -50.7603  -27.0486   12.7128 H         1 UNK         0.0814 
    114 H114      -52.0116  -28.2768   12.7023 H         1 UNK         0.0814 
    115 H115      -50.3715  -28.7127   13.1426 H         1 UNK         0.0814 
    116 H116      -49.6871  -26.4579   14.9199 H         1 UNK         0.3091 
    117 H117      -48.3247  -27.3634   18.0872 H         1 UNK         0.0702 
    118 H118      -46.2801  -27.4715   16.7061 H         1 UNK         0.0785 
    119 H119      -47.2382  -27.5438   15.2271 H         1 UNK         0.0785 
    120 H120      -47.2916  -28.8689   16.3807 H         1 UNK         0.0785 
    121 H121      -47.5998  -25.3208   16.2525 H         1 UNK         0.2998 
    122 H122      -49.3506  -22.7214   18.0237 H         1 UNK         0.0697 
    123 H123      -47.0255  -22.0046   18.4441 H         1 UNK         0.0825 
    124 H124      -46.3961  -23.5452   17.8668 H         1 UNK         0.0825 
    125 H125      -47.3290  -23.4690   19.3553 H         1 UNK         0.0825 
    126 H126      -48.4331  -23.5395   15.4399 H         1 UNK         0.3029 
    127 H127      -48.8291  -20.2765   14.1477 H         1 UNK         0.0897 
    128 H128      -46.1621  -21.7921   14.1049 H         1 UNK         0.0792 
    129 H129      -46.3783  -20.1107   14.5728 H         1 UNK         0.0792 
    130 H130      -46.6891  -20.6027   12.9155 H         1 UNK         0.0792 
    131 H131      -48.1015  -22.7831   12.9330 H         1 UNK         0.3086 
    132 H132      -50.8943  -24.4852   13.3209 H         1 UNK         0.0583 
    133 H133      -52.3346  -22.9274   11.8869 H         1 UNK         0.1020 
    134 H134      -51.1536  -23.0888   10.6174 H         1 UNK         0.1020 
    135 H135      -51.6111  -24.8484    8.7910 H         1 UNK         0.0694 
    136 H136      -50.4116  -25.6852    9.7569 H         1 UNK         0.0694 
    137 H137      -49.1302  -24.4124   11.0228 H         1 UNK         0.2989 
    138 H138      -46.4112  -25.9320   12.6518 H         1 UNK         0.1055 
    139 H139      -46.7942  -27.9150   11.1841 H         1 UNK         0.0806 
    140 H140      -48.4882  -27.4621   10.9884 H         1 UNK         0.0806 
    141 H141      -47.8794  -27.9493   12.5626 H         1 UNK         0.0806 
    142 H142      -46.9970  -25.7430    9.8808 H         1 UNK         0.3061 
    143 H143      -46.3485  -22.3252    9.3575 H         1 UNK         0.0734 
    144 H144      -44.4437  -24.6642    8.7941 H         1 UNK         0.0832 
    145 H145      -44.4561  -23.1100    7.9601 H         1 UNK         0.0832 
    146 H146      -44.0165  -23.1927    9.6576 H         1 UNK         0.0832 
    147 H147      -46.5796  -24.4885    7.5127 H         1 UNK         0.3156 
    148 H148      -50.1274  -24.2715    7.1016 H         1 UNK         0.0589 
    149 H149      -49.2257  -24.1116    4.8166 H         1 UNK         0.0808 
    150 H150      -47.5976  -23.8506    5.4331 H         1 UNK         0.0808 
    151 H151      -48.8527  -22.6605    5.7322 H         1 UNK         0.0808 
    152 H152      -49.7525  -26.4344    6.9944 H         1 UNK         0.3098 
    153 H153      -47.1633  -28.5187    5.9264 H         1 UNK         0.0720 
    154 H154      -46.6638  -28.3910    8.3889 H         1 UNK         0.0791 
    155 H155      -47.6056  -29.8154    7.9859 H         1 UNK         0.0791 
    156 H156      -48.3878  -28.4272    8.7387 H         1 UNK         0.0791 
    157 H157      -49.7777  -29.1344    6.8320 H         1 UNK         0.3028 
@<TRIPOS>BOND
     1    1    2 1    
     2    1   82 1    
     3    1   83 1    
     4    1   84 1    
     5    2    3 2    
     6    2    4 am   BACKBONE|DICT|INTERRES
     7    4    5 1    
     8    4   85 1    
     9    5    6 1    
    10    5   80 1    
    11    5   86 1    
    12    6    7 1    
    13    6   87 1    
    14    6   88 1    
    15    7    8 1    
    16    8    9 1    
    17    8   89 1    
    18    8   90 1    
    19    9   10 ar   
    20    9   14 ar   
    21   10   11 ar   
    22   10   91 1    
    23   11   12 ar   
    24   11   58 1    
    25   12   13 ar   
    26   12   92 1    
    27   13   14 ar   
    28   13   15 1    
    29   14   93 1    
    30   15   16 1    
    31   15   94 1    
    32   15   95 1    
    33   16   17 1    
    34   17   18 1    
    35   17   96 1    
    36   17   97 1    
    37   18   19 1    
    38   18   22 1    
    39   18   98 1    
    40   19   20 am   BACKBONE|DICT|INTERRES
    41   19   21 2    
    42   20   99 1    
    43   20  100 1    
    44   22   23 am   BACKBONE|DICT|INTERRES
    45   22  101 1    
    46   23   24 2    
    47   23   25 1    
    48   25   26 1    
    49   25   27 1    
    50   25  102 1    
    51   26  103 1    
    52   26  104 1    
    53   26  105 1    
    54   27   28 am   BACKBONE|DICT|INTERRES
    55   27  106 1    
    56   28   29 2    
    57   28   30 1    
    58   30   31 1    
    59   30   32 1    
    60   30  107 1    
    61   31  108 1    
    62   31  109 1    
    63   31  110 1    
    64   32   33 am   BACKBONE|DICT|INTERRES
    65   32  111 1    
    66   33   34 2    
    67   33   35 1    
    68   35   36 1    
    69   35   37 1    
    70   35  112 1    
    71   36  113 1    
    72   36  114 1    
    73   36  115 1    
    74   37   38 am   BACKBONE|DICT|INTERRES
    75   37  116 1    
    76   38   39 2    
    77   38   40 1    
    78   40   41 1    
    79   40   42 1    
    80   40  117 1    
    81   41  118 1    
    82   41  119 1    
    83   41  120 1    
    84   42   43 am   BACKBONE|DICT|INTERRES
    85   42  121 1    
    86   43   44 2    
    87   43   45 1    
    88   45   46 1    
    89   45   47 1    
    90   45  122 1    
    91   46  123 1    
    92   46  124 1    
    93   46  125 1    
    94   47   48 am   BACKBONE|DICT|INTERRES
    95   47  126 1    
    96   48   49 2    
    97   48   50 1    
    98   50   51 1    
    99   50   52 1    
   100   50  127 1    
   101   51  128 1    
   102   51  129 1    
   103   51  130 1    
   104   52   53 am   BACKBONE|DICT|INTERRES
   105   52  131 1    
   106   53   54 2    
   107   53   55 1    
   108   55   56 1    
   109   55   59 1    
   110   55  132 1    
   111   56   57 1    
   112   56  133 1    
   113   56  134 1    
   114   57   58 1    
   115   58  135 1    
   116   58  136 1    
   117   59   60 am   BACKBONE|DICT|INTERRES
   118   59  137 1    
   119   60   61 2    
   120   60   62 1    
   121   62   63 1    
   122   62   64 1    
   123   62  138 1    
   124   63  139 1    
   125   63  140 1    
   126   63  141 1    
   127   64   65 am   BACKBONE|DICT|INTERRES
   128   64  142 1    
   129   65   66 2    
   130   65   67 1    
   131   67   68 1    
   132   67   69 1    
   133   67  143 1    
   134   68  144 1    
   135   68  145 1    
   136   68  146 1    
   137   69   70 am   BACKBONE|DICT|INTERRES
   138   69  147 1    
   139   70   71 2    
   140   70   72 1    
   141   72   73 1    
   142   72   74 1    
   143   72  148 1    
   144   73  149 1    
   145   73  150 1    
   146   73  151 1    
   147   74   75 am   BACKBONE|DICT|INTERRES
   148   74  152 1    
   149   75   76 2    
   150   75   77 1    
   151   77   78 1    
   152   77   79 1    
   153   77  153 1    
   154   78  154 1    
   155   78  155 1    
   156   78  156 1    
   157   79   80 am   BACKBONE|DICT|INTERRES
   158   79  157 1    
   159   80   81 2    
@<TRIPOS>SUBSTRUCTURE
     1 UNK         1 GROUP             0       ****    0 ROOT    
