@<TRIPOS>MOLECULE
3R207
157   159    1
SMALL
USER_CHARGES


@<TRIPOS>ATOM
      1 CA        -49.8305  -28.6153   -0.5550 C.3       0 UNK        -0.1975 
      2 C         -49.8316  -28.0669    0.8645 C.2       0 UNK         0.4852 
      3 O         -49.2967  -26.9826    1.1013 O.2       0 UNK        -0.5216 
      4 N         -50.4349  -28.8024    1.8075 N.am      1 UNK        -0.4461 
      5 CA        -50.4736  -28.4652    3.2331 C.3       1 UNK         0.0864 
      6 C6        -51.5712  -29.2824    3.9615 C.3       14 UNK        -0.0898 
      7 S7        -51.9191  -28.6705    5.6465 S.3       14 UNK        -0.2598 
      8 C8        -51.5755  -30.1592    6.6395 C.3       14 UNK         0.0286 
      9 C9        -51.4699  -29.8311    8.1223 C.ar      14 UNK        -0.0844 
     10 C10       -50.2452  -29.9572    8.7845 C.ar      14 UNK        -0.0881 
     11 C11       -50.1291  -29.6277   10.1372 C.ar      14 UNK        -0.0643 
     12 C12       -51.2594  -29.1944   10.8375 C.ar      14 UNK        -0.0930 
     13 C13       -52.4964  -29.0836   10.1938 C.ar      14 UNK        -0.0827 
     14 C14       -52.5944  -29.4051    8.8362 C.ar      14 UNK        -0.1249 
     15 C15       -53.7270  -28.6087   10.9530 C.3       14 UNK         0.0141 
     16 S16       -54.5486  -29.9932   11.8055 S.3       14 UNK        -0.2313 
     17 C17       -56.3155  -29.5489   11.6506 C.3       14 UNK        -0.0915 
     18 CA        -56.9255  -28.8812   12.9164 C.3       13 UNK         0.0968 
     19 C         -57.1633  -29.8844   14.0790 C.2       13 UNK         0.5732 
     20 N         -56.6420  -29.6827   15.2802 N.am      13 UNK        -0.7310 
     21 O         -57.8803  -30.8660   13.8958 O.2       13 UNK        -0.5035 
     22 N         -56.2511  -27.6170   13.2668 N.am      13 UNK        -0.4233 
     23 C         -56.4726  -26.4682   12.6089 C.2       13 UNK         0.4989 
     24 O         -57.3192  -26.3564   11.7195 O.2       13 UNK        -0.4996 
     25 CA        -55.5860  -25.2478   12.9330 C.3       12 UNK         0.0216 
     26 CB        -56.2936  -23.9019   12.6635 C.3       12 UNK        -0.1964 
     27 N         -54.9793  -25.2596   14.2648 N.am      12 UNK        -0.4276 
     28 C         -55.5928  -25.2058   15.4547 C.2       12 UNK         0.5020 
     29 O         -56.8152  -25.1360   15.5964 O.2       12 UNK        -0.5489 
     30 CA        -54.6707  -25.2535   16.6929 C.3       11 UNK         0.0294 
     31 CB        -55.4266  -25.6300   17.9847 C.3       11 UNK        -0.2019 
     32 N         -53.4966  -26.1211   16.5164 N.am      11 UNK        -0.4493 
     33 C         -53.5056  -27.4236   16.1909 C.2       11 UNK         0.4932 
     34 O         -54.5430  -28.0495   15.9770 O.2       11 UNK        -0.5029 
     35 CA        -52.1618  -28.1598   16.0241 C.3       10 UNK         0.0280 
     36 CB        -52.1092  -28.8690   14.6605 C.3       10 UNK        -0.1976 
     37 N         -50.9914  -27.2895   16.1453 N.am      10 UNK        -0.4242 
     38 C         -50.4402  -26.8787   17.2945 C.2       10 UNK         0.5072 
     39 O         -50.8243  -27.2381   18.4078 O.2       10 UNK        -0.5224 
     40 CA        -49.2941  -25.8553   17.1827 C.3       9 UNK         0.0343 
     41 CB        -47.9480  -26.5674   16.9775 C.3       9 UNK        -0.2003 
     42 N         -49.5006  -24.8672   16.1163 N.am      9 UNK        -0.4272 
     43 C         -50.5278  -24.0035   16.0721 C.2       9 UNK         0.4988 
     44 O         -51.3952  -23.9266   16.9427 O.2       9 UNK        -0.5108 
     45 CA        -50.6418  -23.1111   14.8257 C.3       8 UNK         0.0248 
     46 CB        -49.6342  -21.9521   14.8861 C.3       8 UNK        -0.2001 
     47 N         -50.4691  -23.8592   13.5791 N.am      8 UNK        -0.4140 
     48 C         -51.2660  -24.8576   13.1714 C.2       8 UNK         0.5028 
     49 O         -52.2758  -25.2202   13.7727 O.2       8 UNK        -0.5428 
     50 CA        -50.8341  -25.6280   11.9160 C.3       7 UNK         0.0264 
     51 CB        -51.2004  -24.8683   10.6330 C.3       7 UNK        -0.1988 
     52 N         -49.4067  -25.9496   11.9279 N.am      7 UNK        -0.4454 
     53 C         -48.8205  -26.7463   12.8364 C.2       7 UNK         0.5027 
     54 O         -49.4326  -27.3267   13.7317 O.2       7 UNK        -0.5083 
     55 CA        -47.2856  -26.8808   12.7690 C.3       6 UNK         0.0844 
     56 C56       -46.7778  -28.0889   11.9307 C.3       14 UNK        -0.0967 
     57 S57       -47.6457  -28.4122   10.3537 S.3       14 UNK        -0.2604 
     58 C58       -48.7859  -29.7505   10.8420 C.3       14 UNK         0.0134 
     59 N         -46.6604  -25.6061   12.4025 N.am      6 UNK        -0.4116 
     60 C         -46.5996  -24.5559   13.2384 C.2       5 UNK         0.5034 
     61 O         -47.0458  -24.5680   14.3868 O.2       5 UNK        -0.5045 
     62 CA        -45.9719  -23.2608   12.6984 C.3       5 UNK         0.0224 
     63 CB        -44.4375  -23.3455   12.7290 C.3       5 UNK        -0.1978 
     64 N         -46.4190  -22.9232   11.3461 N.am      5 UNK        -0.4737 
     65 C         -47.6882  -22.6623   11.0030 C.2       4 UNK         0.5027 
     66 O         -48.6217  -22.6498   11.8029 O.2       4 UNK        -0.5211 
     67 CA        -47.9734  -22.3995    9.5141 C.3       4 UNK         0.0297 
     68 CB        -47.9923  -20.8888    9.2334 C.3       4 UNK        -0.1993 
     69 N         -47.0320  -23.0554    8.5995 N.am      4 UNK        -0.4486 
     70 C         -46.8517  -24.3796    8.5075 C.2       3 UNK         0.4961 
     71 O         -47.4234  -25.2024    9.2263 O.2       3 UNK        -0.5105 
     72 CA        -45.8021  -24.8470    7.4845 C.3       3 UNK         0.0299 
     73 CB        -44.4362  -25.0139    8.1707 C.3       3 UNK        -0.1972 
     74 N         -46.1701  -26.1092    6.8406 N.am      3 UNK        -0.4305 
     75 C         -47.2351  -26.2869    6.0480 C.2       2 UNK         0.5006 
     76 O         -48.0085  -25.3816    5.7187 O.2       2 UNK        -0.5106 
     77 CA        -47.4678  -27.7150    5.5310 C.3       2 UNK         0.0296 
     78 CB        -47.5545  -28.7295    6.6868 C.3       2 UNK        -0.2002 
     79 N         -48.7083  -27.7323    4.7623 N.am      2 UNK        -0.4032 
     80 C         -49.0819  -28.6589    3.8746 C.2       1 UNK         0.5000 
     81 O         -48.3996  -29.6435    3.5746 O.2       1 UNK        -0.5238 
     82 H82       -50.3456  -29.5735   -0.6228 H         1 UNK         0.0889 
     83 H83       -48.8070  -28.7556   -0.9017 H         1 UNK         0.0889 
     84 H84       -50.3259  -27.9160   -1.2280 H         1 UNK         0.0889 
     85 H85       -50.8279  -29.6989    1.5587 H         1 UNK         0.3028 
     86 H86       -50.7399  -27.4078    3.3048 H         1 UNK         0.0864 
     87 H87       -52.5072  -29.2180    3.4042 H         1 UNK         0.0720 
     88 H88       -51.3131  -30.3430    3.9857 H         1 UNK         0.0720 
     89 H89       -50.6509  -30.6205    6.2881 H         1 UNK         0.0814 
     90 H90       -52.3687  -30.8915    6.4820 H         1 UNK         0.0814 
     91 H91       -49.3735  -30.3043    8.2487 H         1 UNK         0.1469 
     92 H92       -51.1745  -28.9484   11.8860 H         1 UNK         0.1381 
     93 H93       -53.5454  -29.3153    8.3288 H         1 UNK         0.1206 
     94 H94       -54.4139  -28.1223   10.2596 H         1 UNK         0.0813 
     95 H95       -53.4540  -27.8501   11.6872 H         1 UNK         0.0813 
     96 H96       -56.8650  -30.4580   11.4006 H         1 UNK         0.0638 
     97 H97       -56.4542  -28.8978   10.7873 H         1 UNK         0.0638 
     98 H98       -57.9494  -28.6129   12.6486 H         1 UNK         0.0568 
     99 H99       -55.9762  -28.9386   15.4752 H         1 UNK         0.3450 
    100 H100      -56.8442  -30.3529   16.0038 H         1 UNK         0.3450 
    101 H101      -55.5696  -27.6545   14.0135 H         1 UNK         0.2987 
    102 H102      -54.7476  -25.3123   12.2379 H         1 UNK         0.0766 
    103 H103      -57.1902  -23.7874   13.2733 H         1 UNK         0.0798 
    104 H104      -55.6348  -23.0591   12.8726 H         1 UNK         0.0798 
    105 H105      -56.5984  -23.8188   11.6196 H         1 UNK         0.0798 
    106 H106      -53.9572  -25.3094   14.2582 H         1 UNK         0.3198 
    107 H107      -54.2832  -24.2413   16.8183 H         1 UNK         0.0843 
    108 H108      -55.8875  -26.6154   17.9099 H         1 UNK         0.0831 
    109 H109      -56.2220  -24.9143   18.1961 H         1 UNK         0.0831 
    110 H110      -54.7598  -25.6353   18.8469 H         1 UNK         0.0831 
    111 H111      -52.6004  -25.6588   16.6226 H         1 UNK         0.3133 
    112 H112      -52.1128  -28.9222   16.8038 H         1 UNK         0.0566 
    113 H113      -52.9159  -29.5962   14.5582 H         1 UNK         0.0814 
    114 H114      -52.2076  -28.1546   13.8433 H         1 UNK         0.0814 
    115 H115      -51.1712  -29.4079   14.5263 H         1 UNK         0.0814 
    116 H116      -50.5607  -26.9981   15.2713 H         1 UNK         0.3091 
    117 H117      -49.2480  -25.3097   18.1274 H         1 UNK         0.0702 
    118 H118      -47.1217  -25.8565   16.9557 H         1 UNK         0.0785 
    119 H119      -47.9286  -27.1325   16.0457 H         1 UNK         0.0785 
    120 H120      -47.7510  -27.2696   17.7887 H         1 UNK         0.0785 
    121 H121      -48.8049  -24.8406   15.3772 H         1 UNK         0.2998 
    122 H122      -51.6475  -22.6858   14.8147 H         1 UNK         0.0697 
    123 H123      -48.6040  -22.3083   14.8564 H         1 UNK         0.0825 
    124 H124      -49.7556  -21.3752   15.8038 H         1 UNK         0.0825 
    125 H125      -49.7719  -21.2654   14.0506 H         1 UNK         0.0825 
    126 H126      -49.6911  -23.5798   12.9838 H         1 UNK         0.3029 
    127 H127      -51.3815  -26.5703   11.9128 H         1 UNK         0.0897 
    128 H128      -50.7074  -23.8982   10.5801 H         1 UNK         0.0792 
    129 H129      -52.2753  -24.6900   10.5826 H         1 UNK         0.0792 
    130 H130      -50.9236  -25.4366    9.7443 H         1 UNK         0.0792 
    131 H131      -48.8319  -25.5413   11.2016 H         1 UNK         0.3086 
    132 H132      -46.9623  -27.0876   13.7917 H         1 UNK         0.0583 
    133 H133      -45.7158  -27.9670   11.7122 H         1 UNK         0.1020 
    134 H134      -46.8281  -28.9920   12.5412 H         1 UNK         0.1020 
    135 H135      -48.3298  -30.7131   10.6066 H         1 UNK         0.0694 
    136 H136      -48.9382  -29.7404   11.9224 H         1 UNK         0.0694 
    137 H137      -46.3454  -25.5052   11.4475 H         1 UNK         0.2989 
    138 H138      -46.2830  -22.4496   13.3607 H         1 UNK         0.1055 
    139 H139      -44.0805  -23.5852   13.7318 H         1 UNK         0.0806 
    140 H140      -43.9822  -22.3966   12.4447 H         1 UNK         0.0806 
    141 H141      -44.0584  -24.1152   12.0555 H         1 UNK         0.0806 
    142 H142      -45.7183  -22.9052   10.6198 H         1 UNK         0.3061 
    143 H143      -48.9666  -22.7981    9.2990 H         1 UNK         0.0734 
    144 H144      -47.0158  -20.4331    9.4025 H         1 UNK         0.0832 
    145 H145      -48.2903  -20.6779    8.2063 H         1 UNK         0.0832 
    146 H146      -48.7051  -20.3810    9.8851 H         1 UNK         0.0832 
    147 H147      -46.5085  -22.4517    7.9812 H         1 UNK         0.3156 
    148 H148      -45.7102  -24.0902    6.7024 H         1 UNK         0.0589 
    149 H149      -44.4690  -25.7712    8.9555 H         1 UNK         0.0808 
    150 H150      -43.6650  -25.3036    7.4566 H         1 UNK         0.0808 
    151 H151      -44.1110  -24.0806    8.6323 H         1 UNK         0.0808 
    152 H152      -45.6135  -26.9148    7.0852 H         1 UNK         0.3098 
    153 H153      -46.6382  -27.9761    4.8709 H         1 UNK         0.0720 
    154 H154      -47.8083  -29.7283    6.3322 H         1 UNK         0.0791 
    155 H155      -48.3125  -28.4233    7.4076 H         1 UNK         0.0791 
    156 H156      -46.6090  -28.8138    7.2229 H         1 UNK         0.0791 
    157 H157      -49.2927  -26.9199    4.9208 H         1 UNK         0.3028 
@<TRIPOS>BOND
     1    1    2 1    
     2    1   82 1    
     3    1   83 1    
     4    1   84 1    
     5    2    3 2    
     6    2    4 am   BACKBONE|DICT|INTERRES
     7    4    5 1    
     8    4   85 1    
     9    5    6 1    
    10    5   80 1    
    11    5   86 1    
    12    6    7 1    
    13    6   87 1    
    14    6   88 1    
    15    7    8 1    
    16    8    9 1    
    17    8   89 1    
    18    8   90 1    
    19    9   10 ar   
    20    9   14 ar   
    21   10   11 ar   
    22   10   91 1    
    23   11   12 ar   
    24   11   58 1    
    25   12   13 ar   
    26   12   92 1    
    27   13   14 ar   
    28   13   15 1    
    29   14   93 1    
    30   15   16 1    
    31   15   94 1    
    32   15   95 1    
    33   16   17 1    
    34   17   18 1    
    35   17   96 1    
    36   17   97 1    
    37   18   19 1    
    38   18   22 1    
    39   18   98 1    
    40   19   20 am   BACKBONE|DICT|INTERRES
    41   19   21 2    
    42   20   99 1    
    43   20  100 1    
    44   22   23 am   BACKBONE|DICT|INTERRES
    45   22  101 1    
    46   23   24 2    
    47   23   25 1    
    48   25   26 1    
    49   25   27 1    
    50   25  102 1    
    51   26  103 1    
    52   26  104 1    
    53   26  105 1    
    54   27   28 am   BACKBONE|DICT|INTERRES
    55   27  106 1    
    56   28   29 2    
    57   28   30 1    
    58   30   31 1    
    59   30   32 1    
    60   30  107 1    
    61   31  108 1    
    62   31  109 1    
    63   31  110 1    
    64   32   33 am   BACKBONE|DICT|INTERRES
    65   32  111 1    
    66   33   34 2    
    67   33   35 1    
    68   35   36 1    
    69   35   37 1    
    70   35  112 1    
    71   36  113 1    
    72   36  114 1    
    73   36  115 1    
    74   37   38 am   BACKBONE|DICT|INTERRES
    75   37  116 1    
    76   38   39 2    
    77   38   40 1    
    78   40   41 1    
    79   40   42 1    
    80   40  117 1    
    81   41  118 1    
    82   41  119 1    
    83   41  120 1    
    84   42   43 am   BACKBONE|DICT|INTERRES
    85   42  121 1    
    86   43   44 2    
    87   43   45 1    
    88   45   46 1    
    89   45   47 1    
    90   45  122 1    
    91   46  123 1    
    92   46  124 1    
    93   46  125 1    
    94   47   48 am   BACKBONE|DICT|INTERRES
    95   47  126 1    
    96   48   49 2    
    97   48   50 1    
    98   50   51 1    
    99   50   52 1    
   100   50  127 1    
   101   51  128 1    
   102   51  129 1    
   103   51  130 1    
   104   52   53 am   BACKBONE|DICT|INTERRES
   105   52  131 1    
   106   53   54 2    
   107   53   55 1    
   108   55   56 1    
   109   55   59 1    
   110   55  132 1    
   111   56   57 1    
   112   56  133 1    
   113   56  134 1    
   114   57   58 1    
   115   58  135 1    
   116   58  136 1    
   117   59   60 am   BACKBONE|DICT|INTERRES
   118   59  137 1    
   119   60   61 2    
   120   60   62 1    
   121   62   63 1    
   122   62   64 1    
   123   62  138 1    
   124   63  139 1    
   125   63  140 1    
   126   63  141 1    
   127   64   65 am   BACKBONE|DICT|INTERRES
   128   64  142 1    
   129   65   66 2    
   130   65   67 1    
   131   67   68 1    
   132   67   69 1    
   133   67  143 1    
   134   68  144 1    
   135   68  145 1    
   136   68  146 1    
   137   69   70 am   BACKBONE|DICT|INTERRES
   138   69  147 1    
   139   70   71 2    
   140   70   72 1    
   141   72   73 1    
   142   72   74 1    
   143   72  148 1    
   144   73  149 1    
   145   73  150 1    
   146   73  151 1    
   147   74   75 am   BACKBONE|DICT|INTERRES
   148   74  152 1    
   149   75   76 2    
   150   75   77 1    
   151   77   78 1    
   152   77   79 1    
   153   77  153 1    
   154   78  154 1    
   155   78  155 1    
   156   78  156 1    
   157   79   80 am   BACKBONE|DICT|INTERRES
   158   79  157 1    
   159   80   81 2    
@<TRIPOS>SUBSTRUCTURE
     1 UNK         1 GROUP             0       ****    0 ROOT    
