@<TRIPOS>MOLECULE
3R207
157   159    1
SMALL
USER_CHARGES


@<TRIPOS>ATOM
      1 CA        -48.4854  -20.8646    5.9830 C.3       0 UNK        -0.1975 
      2 C         -48.3739  -22.1821    6.7342 C.2       0 UNK         0.4852 
      3 O         -48.1760  -23.2233    6.1082 O.2       0 UNK        -0.5216 
      4 N         -48.4759  -22.1389    8.0706 N.am      1 UNK        -0.4461 
      5 CA        -48.4752  -23.2899    8.9885 C.3       1 UNK         0.0864 
      6 C6        -49.7862  -24.1153    8.9192 C.3       14 UNK        -0.0898 
      7 S7        -51.2403  -23.0976    9.3466 S.3       14 UNK        -0.2598 
      8 C8        -52.5260  -23.8143    8.2780 C.3       14 UNK         0.0286 
      9 C9        -52.8697  -25.2367    8.6933 C.ar      14 UNK        -0.0844 
     10 C10       -52.4238  -26.3197    7.9308 C.ar      14 UNK        -0.0881 
     11 C11       -52.7148  -27.6279    8.3258 C.ar      14 UNK        -0.0643 
     12 C12       -53.4876  -27.8482    9.4691 C.ar      14 UNK        -0.0930 
     13 C13       -53.9350  -26.7752   10.2438 C.ar      14 UNK        -0.0827 
     14 C14       -53.6241  -25.4702    9.8481 C.ar      14 UNK        -0.1249 
     15 C15       -54.7590  -27.0199   11.5006 C.3       14 UNK         0.0141 
     16 S16       -53.7447  -27.6419   12.8837 S.3       14 UNK        -0.2313 
     17 C17       -54.0023  -29.4472   12.7577 C.3       14 UNK        -0.0915 
     18 CA        -55.1245  -29.9597   13.7081 C.3       13 UNK         0.0968 
     19 C         -55.5431  -31.4362   13.4276 C.2       13 UNK         0.5732 
     20 N         -56.0065  -32.1895   14.4182 N.am      13 UNK        -0.7310 
     21 O         -55.4851  -31.9006   12.2913 O.2       13 UNK        -0.5035 
     22 N         -54.8652  -29.6467   15.1249 N.am      13 UNK        -0.4233 
     23 C         -53.8872  -30.1564   15.8899 C.2       13 UNK         0.4989 
     24 O         -53.0857  -31.0033   15.4949 O.2       13 UNK        -0.4996 
     25 CA        -53.7546  -29.6339   17.3358 C.3       12 UNK         0.0216 
     26 CB        -52.3361  -29.0977   17.5928 C.3       12 UNK        -0.1964 
     27 N         -54.7145  -28.5747   17.6522 N.am      12 UNK        -0.4276 
     28 C         -55.9529  -28.7613   18.1266 C.2       12 UNK         0.5020 
     29 O         -56.4148  -29.8601   18.4341 O.2       12 UNK        -0.5489 
     30 CA        -56.8370  -27.5044   18.2299 C.3       11 UNK         0.0294 
     31 CB        -56.7062  -26.8642   19.6209 C.3       11 UNK        -0.2019 
     32 N         -56.5252  -26.5031   17.2027 N.am      11 UNK        -0.4493 
     33 C         -56.6816  -26.6781   15.8844 C.2       11 UNK         0.4932 
     34 O         -57.1549  -27.6992   15.3874 O.2       11 UNK        -0.5029 
     35 CA        -56.1614  -25.5682   14.9587 C.3       10 UNK         0.0280 
     36 CB        -57.0944  -24.3416   14.9567 C.3       10 UNK        -0.1976 
     37 N         -54.7579  -25.2028   15.2073 N.am      10 UNK        -0.4242 
     38 C         -54.2298  -24.5638   16.2615 C.2       10 UNK         0.5072 
     39 O         -54.8958  -24.1974   17.2317 O.2       10 UNK        -0.5224 
     40 CA        -52.7065  -24.3180   16.2796 C.3       9 UNK         0.0343 
     41 CB        -52.0718  -24.9340   17.5388 C.3       9 UNK        -0.2003 
     42 N         -51.9646  -24.7934   15.1056 N.am      9 UNK        -0.4272 
     43 C         -52.0047  -24.2646   13.8769 C.2       9 UNK         0.4988 
     44 O         -52.7809  -23.3648   13.5568 O.2       9 UNK        -0.5108 
     45 CA        -51.0239  -24.8094   12.8185 C.3       8 UNK         0.0248 
     46 CB        -49.8179  -23.8607   12.6734 C.3       8 UNK        -0.2001 
     47 N         -50.5648  -26.1980   12.9920 N.am      8 UNK        -0.4140 
     48 C         -49.7930  -26.7230   13.9565 C.2       8 UNK         0.5028 
     49 O         -49.4589  -26.1155   14.9736 O.2       8 UNK        -0.5428 
     50 CA        -49.3168  -28.1771   13.7697 C.3       7 UNK         0.0264 
     51 CB        -50.1774  -29.1336   14.6080 C.3       7 UNK        -0.1988 
     52 N         -49.3017  -28.6330   12.3740 N.am      7 UNK        -0.4454 
     53 C         -48.4704  -28.1658   11.4297 C.2       7 UNK         0.5027 
     54 O         -47.6167  -27.3013   11.6453 O.2       7 UNK        -0.5083 
     55 CA        -48.6529  -28.7474   10.0134 C.3       6 UNK         0.0844 
     56 C56       -50.0367  -28.3548    9.4437 C.3       14 UNK        -0.0967 
     57 S57       -50.3278  -28.9524    7.7409 S.3       14 UNK        -0.2604 
     58 C58       -52.1404  -28.8110    7.5592 C.3       14 UNK         0.0134 
     59 N         -47.5650  -28.2841    9.1511 N.am      6 UNK        -0.4116 
     60 C         -46.5353  -29.0296    8.7367 C.2       5 UNK         0.5034 
     61 O         -46.3729  -30.2145    9.0373 O.2       5 UNK        -0.5045 
     62 CA        -45.5200  -28.3165    7.8261 C.3       5 UNK         0.0224 
     63 CB        -44.4883  -29.2682    7.1837 C.3       5 UNK        -0.1978 
     64 N         -46.1808  -27.4831    6.8158 N.am      5 UNK        -0.4737 
     65 C         -46.9603  -27.8662    5.7930 C.2       4 UNK         0.5027 
     66 O         -47.2011  -29.0377    5.5021 O.2       4 UNK        -0.5211 
     67 CA        -47.5731  -26.7381    4.9387 C.3       4 UNK         0.0297 
     68 CB        -49.0230  -26.4679    5.3700 C.3       4 UNK        -0.1993 
     69 N         -46.8120  -25.4883    5.0228 N.am      4 UNK        -0.4486 
     70 C         -45.6046  -25.2930    4.4731 C.2       3 UNK         0.4961 
     71 O         -45.0539  -26.0944    3.7177 O.2       3 UNK        -0.5105 
     72 CA        -44.8669  -24.0065    4.8776 C.3       3 UNK         0.0299 
     73 CB        -45.3581  -22.8033    4.0561 C.3       3 UNK        -0.1972 
     74 N         -45.0056  -23.7320    6.3117 N.am      3 UNK        -0.4305 
     75 C         -44.3870  -24.4295    7.2776 C.2       2 UNK         0.5006 
     76 O         -43.5844  -25.3358    7.0572 O.2       2 UNK        -0.5106 
     77 CA        -44.7168  -24.0762    8.7386 C.3       2 UNK         0.0296 
     78 CB        -43.6554  -23.1231    9.3116 C.3       2 UNK        -0.2002 
     79 N         -46.0435  -23.4811    8.9111 N.am      2 UNK        -0.4032 
     80 C         -47.2021  -24.1526    8.8361 C.2       1 UNK         0.5000 
     81 O         -47.2793  -25.3654    8.6196 O.2       1 UNK        -0.5238 
     82 H82       -47.5486  -20.6413    5.4735 H         1 UNK         0.0889 
     83 H83       -48.7182  -20.0336    6.6486 H         1 UNK         0.0889 
     84 H84       -49.2740  -20.9290    5.2338 H         1 UNK         0.0889 
     85 H85       -48.6340  -21.2445    8.5138 H         1 UNK         0.3028 
     86 H86       -48.4144  -22.8696    9.9935 H         1 UNK         0.0864 
     87 H87       -49.9152  -24.5433    7.9245 H         1 UNK         0.0720 
     88 H88       -49.7543  -24.9527    9.6174 H         1 UNK         0.0720 
     89 H89       -52.1982  -23.7760    7.2379 H         1 UNK         0.0814 
     90 H90       -53.4218  -23.1947    8.3390 H         1 UNK         0.0814 
     91 H91       -51.8194  -26.1510    7.0499 H         1 UNK         0.1469 
     92 H92       -53.7154  -28.8604    9.7672 H         1 UNK         0.1381 
     93 H93       -53.9597  -24.6311   10.4426 H         1 UNK         0.1206 
     94 H94       -55.5738  -27.7126   11.2855 H         1 UNK         0.0813 
     95 H95       -55.2340  -26.0895   11.8129 H         1 UNK         0.0813 
     96 H96       -54.2387  -29.6952   11.7242 H         1 UNK         0.0638 
     97 H97       -53.0588  -29.9491   12.9733 H         1 UNK         0.0638 
     98 H98       -56.0216  -29.3922   13.4593 H         1 UNK         0.0568 
     99 H99       -56.0744  -31.8205   15.3529 H         1 UNK         0.3450 
    100 H100      -56.2859  -33.1385   14.2265 H         1 UNK         0.3450 
    101 H101      -55.5171  -28.9890   15.5328 H         1 UNK         0.2987 
    102 H102      -53.9224  -30.4825   18.0024 H         1 UNK         0.0766 
    103 H103      -51.5912  -29.8836   17.4610 H         1 UNK         0.0798 
    104 H104      -52.2289  -28.7229   18.6109 H         1 UNK         0.0798 
    105 H105      -52.0831  -28.2897   16.9062 H         1 UNK         0.0798 
    106 H106      -54.4361  -27.6304   17.4304 H         1 UNK         0.3198 
    107 H107      -57.8737  -27.8181   18.0895 H         1 UNK         0.0843 
    108 H108      -55.6934  -26.5046   19.8078 H         1 UNK         0.0831 
    109 H109      -56.9478  -27.5828   20.4054 H         1 UNK         0.0831 
    110 H110      -57.3877  -26.0210   19.7349 H         1 UNK         0.0831 
    111 H111      -56.0949  -25.6310   17.5051 H         1 UNK         0.3133 
    112 H112      -56.1808  -25.9790   13.9497 H         1 UNK         0.0566 
    113 H113      -56.7500  -23.5854   14.2512 H         1 UNK         0.0814 
    114 H114      -58.1050  -24.6250   14.6600 H         1 UNK         0.0814 
    115 H115      -57.1675  -23.8740   15.9388 H         1 UNK         0.0814 
    116 H116      -54.1108  -25.4836   14.4830 H         1 UNK         0.3091 
    117 H117      -52.5717  -23.2359   16.3330 H         1 UNK         0.0702 
    118 H118      -52.5335  -24.5433   18.4468 H         1 UNK         0.0785 
    119 H119      -51.0073  -24.7055   17.5986 H         1 UNK         0.0785 
    120 H120      -52.1823  -26.0174   17.5578 H         1 UNK         0.0785 
    121 H121      -51.2258  -25.4703   15.2758 H         1 UNK         0.2998 
    122 H122      -51.5647  -24.8045   11.8713 H         1 UNK         0.0697 
    123 H123      -49.2772  -23.7455   13.6134 H         1 UNK         0.0825 
    124 H124      -50.1401  -22.8670   12.3594 H         1 UNK         0.0825 
    125 H125      -49.1127  -24.2278   11.9287 H         1 UNK         0.0825 
    126 H126      -50.8454  -26.8249   12.2520 H         1 UNK         0.3029 
    127 H127      -48.2917  -28.2284   14.1436 H         1 UNK         0.0897 
    128 H128      -49.8554  -30.1691   14.4968 H         1 UNK         0.0792 
    129 H129      -51.2317  -29.0767   14.3363 H         1 UNK         0.0792 
    130 H130      -50.0979  -28.8876   15.6669 H         1 UNK         0.0792 
    131 H131      -49.9602  -29.3597   12.1319 H         1 UNK         0.3086 
    132 H132      -48.6204  -29.8352   10.1025 H         1 UNK         0.0583 
    133 H133      -50.8314  -28.7523   10.0769 H         1 UNK         0.1020 
    134 H134      -50.1531  -27.2700    9.4439 H         1 UNK         0.1020 
    135 H135      -52.3855  -28.7143    6.5007 H         1 UNK         0.0694 
    136 H136      -52.5964  -29.7437    7.8949 H         1 UNK         0.0694 
    137 H137      -47.5725  -27.2952    8.9165 H         1 UNK         0.2989 
    138 H138      -44.9705  -27.6297    8.4720 H         1 UNK         0.1055 
    139 H139      -44.9651  -30.0313    6.5680 H         1 UNK         0.0806 
    140 H140      -43.9074  -29.7856    7.9481 H         1 UNK         0.0806 
    141 H141      -43.7841  -28.7209    6.5568 H         1 UNK         0.0806 
    142 H142      -46.1232  -26.4869    6.9819 H         1 UNK         0.3061 
    143 H143      -47.5776  -27.0685    3.8979 H         1 UNK         0.0734 
    144 H144      -49.4704  -25.6602    4.7905 H         1 UNK         0.0832 
    145 H145      -49.6418  -27.3541    5.2259 H         1 UNK         0.0832 
    146 H146      -49.0811  -26.1975    6.4249 H         1 UNK         0.0832 
    147 H147      -47.2317  -24.7338    5.5647 H         1 UNK         0.3156 
    148 H148      -43.8056  -24.1468    4.6606 H         1 UNK         0.0589 
    149 H149      -46.4246  -22.6228    4.1898 H         1 UNK         0.0808 
    150 H150      -44.8250  -21.8919    4.3268 H         1 UNK         0.0808 
    151 H151      -45.1918  -22.9704    2.9910 H         1 UNK         0.0808 
    152 H152      -45.6744  -23.0247    6.5773 H         1 UNK         0.3098 
    153 H153      -44.6850  -25.0043    9.3139 H         1 UNK         0.0720 
    154 H154      -43.8287  -22.9256   10.3697 H         1 UNK         0.0791 
    155 H155      -43.6438  -22.1665    8.7876 H         1 UNK         0.0791 
    156 H156      -42.6567  -23.5540    9.2245 H         1 UNK         0.0791 
    157 H157      -46.0760  -22.4861    9.0821 H         1 UNK         0.3028 
@<TRIPOS>BOND
     1    1    2 1    
     2    1   82 1    
     3    1   83 1    
     4    1   84 1    
     5    2    3 2    
     6    2    4 am   BACKBONE|DICT|INTERRES
     7    4    5 1    
     8    4   85 1    
     9    5    6 1    
    10    5   80 1    
    11    5   86 1    
    12    6    7 1    
    13    6   87 1    
    14    6   88 1    
    15    7    8 1    
    16    8    9 1    
    17    8   89 1    
    18    8   90 1    
    19    9   10 ar   
    20    9   14 ar   
    21   10   11 ar   
    22   10   91 1    
    23   11   12 ar   
    24   11   58 1    
    25   12   13 ar   
    26   12   92 1    
    27   13   14 ar   
    28   13   15 1    
    29   14   93 1    
    30   15   16 1    
    31   15   94 1    
    32   15   95 1    
    33   16   17 1    
    34   17   18 1    
    35   17   96 1    
    36   17   97 1    
    37   18   19 1    
    38   18   22 1    
    39   18   98 1    
    40   19   20 am   BACKBONE|DICT|INTERRES
    41   19   21 2    
    42   20   99 1    
    43   20  100 1    
    44   22   23 am   BACKBONE|DICT|INTERRES
    45   22  101 1    
    46   23   24 2    
    47   23   25 1    
    48   25   26 1    
    49   25   27 1    
    50   25  102 1    
    51   26  103 1    
    52   26  104 1    
    53   26  105 1    
    54   27   28 am   BACKBONE|DICT|INTERRES
    55   27  106 1    
    56   28   29 2    
    57   28   30 1    
    58   30   31 1    
    59   30   32 1    
    60   30  107 1    
    61   31  108 1    
    62   31  109 1    
    63   31  110 1    
    64   32   33 am   BACKBONE|DICT|INTERRES
    65   32  111 1    
    66   33   34 2    
    67   33   35 1    
    68   35   36 1    
    69   35   37 1    
    70   35  112 1    
    71   36  113 1    
    72   36  114 1    
    73   36  115 1    
    74   37   38 am   BACKBONE|DICT|INTERRES
    75   37  116 1    
    76   38   39 2    
    77   38   40 1    
    78   40   41 1    
    79   40   42 1    
    80   40  117 1    
    81   41  118 1    
    82   41  119 1    
    83   41  120 1    
    84   42   43 am   BACKBONE|DICT|INTERRES
    85   42  121 1    
    86   43   44 2    
    87   43   45 1    
    88   45   46 1    
    89   45   47 1    
    90   45  122 1    
    91   46  123 1    
    92   46  124 1    
    93   46  125 1    
    94   47   48 am   BACKBONE|DICT|INTERRES
    95   47  126 1    
    96   48   49 2    
    97   48   50 1    
    98   50   51 1    
    99   50   52 1    
   100   50  127 1    
   101   51  128 1    
   102   51  129 1    
   103   51  130 1    
   104   52   53 am   BACKBONE|DICT|INTERRES
   105   52  131 1    
   106   53   54 2    
   107   53   55 1    
   108   55   56 1    
   109   55   59 1    
   110   55  132 1    
   111   56   57 1    
   112   56  133 1    
   113   56  134 1    
   114   57   58 1    
   115   58  135 1    
   116   58  136 1    
   117   59   60 am   BACKBONE|DICT|INTERRES
   118   59  137 1    
   119   60   61 2    
   120   60   62 1    
   121   62   63 1    
   122   62   64 1    
   123   62  138 1    
   124   63  139 1    
   125   63  140 1    
   126   63  141 1    
   127   64   65 am   BACKBONE|DICT|INTERRES
   128   64  142 1    
   129   65   66 2    
   130   65   67 1    
   131   67   68 1    
   132   67   69 1    
   133   67  143 1    
   134   68  144 1    
   135   68  145 1    
   136   68  146 1    
   137   69   70 am   BACKBONE|DICT|INTERRES
   138   69  147 1    
   139   70   71 2    
   140   70   72 1    
   141   72   73 1    
   142   72   74 1    
   143   72  148 1    
   144   73  149 1    
   145   73  150 1    
   146   73  151 1    
   147   74   75 am   BACKBONE|DICT|INTERRES
   148   74  152 1    
   149   75   76 2    
   150   75   77 1    
   151   77   78 1    
   152   77   79 1    
   153   77  153 1    
   154   78  154 1    
   155   78  155 1    
   156   78  156 1    
   157   79   80 am   BACKBONE|DICT|INTERRES
   158   79  157 1    
   159   80   81 2    
@<TRIPOS>SUBSTRUCTURE
     1 UNK         1 GROUP             0       ****    0 ROOT    
