@<TRIPOS>MOLECULE
3R207
157   159    1
SMALL
USER_CHARGES


@<TRIPOS>ATOM
      1 CA        -45.4136  -31.1724    5.4349 C.3       0 UNK        -0.1975 
      2 C         -46.7275  -30.4267    5.2556 C.2       0 UNK         0.4852 
      3 O         -47.1922  -30.2692    4.1261 O.2       0 UNK        -0.5216 
      4 N         -47.3281  -29.9675    6.3619 N.am      1 UNK        -0.4461 
      5 CA        -48.6024  -29.2367    6.3903 C.3       1 UNK         0.0864 
      6 C6        -49.1494  -29.1028    7.8335 C.3       14 UNK        -0.0898 
      7 S7        -49.5535  -30.7078    8.6007 S.3       14 UNK        -0.2598 
      8 C8        -51.3572  -30.8119    8.3522 C.3       14 UNK         0.0286 
      9 C9        -52.1193  -29.8081    9.2076 C.ar      14 UNK        -0.0844 
     10 C10       -52.5277  -28.5874    8.6614 C.ar      14 UNK        -0.0881 
     11 C11       -53.2007  -27.6490    9.4454 C.ar      14 UNK        -0.0643 
     12 C12       -53.5066  -27.9585   10.7713 C.ar      14 UNK        -0.0930 
     13 C13       -53.1333  -29.1843   11.3264 C.ar      14 UNK        -0.0827 
     14 C14       -52.4239  -30.1010   10.5417 C.ar      14 UNK        -0.1249 
     15 C15       -53.4667  -29.4771   12.7846 C.3       14 UNK         0.0141 
     16 S16       -54.2300  -31.1103   13.0708 S.3       14 UNK        -0.2313 
     17 C17       -55.8619  -31.1526   12.2339 C.3       14 UNK        -0.0915 
     18 CA        -56.4875  -29.8425   11.6579 C.3       13 UNK         0.0968 
     19 C         -57.8369  -30.1078   10.9240 C.2       13 UNK         0.5732 
     20 N         -57.8655  -31.0486    9.9888 N.am      13 UNK        -0.7310 
     21 O         -58.8553  -29.4594   11.1620 O.2       13 UNK        -0.5035 
     22 N         -56.5838  -28.7337   12.6195 N.am      13 UNK        -0.4233 
     23 C         -57.1684  -28.7281   13.8219 C.2       13 UNK         0.4989 
     24 O         -57.6609  -29.7266   14.3506 O.2       13 UNK        -0.4996 
     25 CA        -57.2222  -27.3691   14.5606 C.3       12 UNK         0.0216 
     26 CB        -57.5293  -27.5303   16.0619 C.3       12 UNK        -0.1964 
     27 N         -56.0208  -26.5328   14.4229 N.am      12 UNK        -0.4276 
     28 C         -55.6143  -25.8730   13.3328 C.2       12 UNK         0.5020 
     29 O         -56.1809  -25.9747   12.2443 O.2       12 UNK        -0.5489 
     30 CA        -54.3697  -24.9662   13.4304 C.3       11 UNK         0.0294 
     31 CB        -54.7859  -23.4840   13.4798 C.3       11 UNK        -0.2019 
     32 N         -53.3930  -25.2611   14.4921 N.am      11 UNK        -0.4493 
     33 C         -53.5576  -25.2215   15.8227 C.2       11 UNK         0.4932 
     34 O         -54.6517  -25.0645   16.3658 O.2       11 UNK        -0.5029 
     35 CA        -52.2981  -25.3406   16.6999 C.3       10 UNK         0.0280 
     36 CB        -52.5980  -25.8942   18.1103 C.3       10 UNK        -0.1976 
     37 N         -51.1794  -26.0531   16.0741 N.am      10 UNK        -0.4242 
     38 C         -51.0894  -27.3625   15.7912 C.2       10 UNK         0.5072 
     39 O         -52.0188  -28.1558   15.9467 O.2       10 UNK        -0.5224 
     40 CA        -49.7352  -27.8951   15.2696 C.3       9 UNK         0.0343 
     41 CB        -49.9112  -28.8114   14.0479 C.3       9 UNK        -0.2003 
     42 N         -48.7789  -26.8401   14.9298 N.am      9 UNK        -0.4272 
     43 C         -47.9964  -26.1861   15.7982 C.2       9 UNK         0.4988 
     44 O         -47.9383  -26.4469   16.9999 O.2       9 UNK        -0.5108 
     45 CA        -47.1784  -25.0071   15.2406 C.3       8 UNK         0.0248 
     46 CB        -45.8239  -25.4968   14.7054 C.3       8 UNK        -0.2001 
     47 N         -47.8836  -24.2492   14.1982 N.am      8 UNK        -0.4140 
     48 C         -49.0424  -23.5980   14.3843 C.2       8 UNK         0.5028 
     49 O         -49.6263  -23.5437   15.4671 O.2       8 UNK        -0.5428 
     50 CA        -49.6892  -22.9363   13.1554 C.3       7 UNK         0.0264 
     51 CB        -48.9871  -21.6145   12.8070 C.3       7 UNK        -0.1988 
     52 N         -49.7206  -23.8100   11.9799 N.am      7 UNK        -0.4454 
     53 C         -50.3769  -24.9802   11.9191 C.2       7 UNK         0.5027 
     54 O         -51.0474  -25.4371   12.8473 O.2       7 UNK        -0.5083 
     55 CA        -50.2081  -25.8075   10.6242 C.3       6 UNK         0.0844 
     56 C56       -51.0088  -25.2359    9.4212 C.3       14 UNK        -0.0967 
     57 S57       -52.7825  -24.9168    9.7326 S.3       14 UNK        -0.2604 
     58 C58       -53.5930  -26.2985    8.8652 C.3       14 UNK         0.0134 
     59 N         -48.7907  -25.9530   10.2786 N.am      6 UNK        -0.4116 
     60 C         -47.8312  -26.4708   11.0583 C.2       5 UNK         0.5034 
     61 O         -48.0368  -26.9915   12.1520 O.2       5 UNK        -0.5045 
     62 CA        -46.3828  -26.3190   10.5661 C.3       5 UNK         0.0224 
     63 CB        -46.0037  -27.4179    9.5613 C.3       5 UNK        -0.1978 
     64 N         -46.1338  -25.0002    9.9794 N.am      5 UNK        -0.4737 
     65 C         -46.0859  -23.8595   10.6806 C.2       4 UNK         0.5027 
     66 O         -46.2153  -23.8038   11.9023 O.2       4 UNK        -0.5211 
     67 CA        -45.8917  -22.5605    9.8811 C.3       4 UNK         0.0297 
     68 CB        -44.4023  -22.3267    9.5839 C.3       4 UNK        -0.1993 
     69 N         -46.6530  -22.5466    8.6292 N.am      4 UNK        -0.4486 
     70 C         -47.9913  -22.5142    8.5623 C.2       3 UNK         0.4961 
     71 O         -48.7259  -22.4610    9.5491 O.2       3 UNK        -0.5105 
     72 CA        -48.6158  -22.6132    7.1572 C.3       3 UNK         0.0299 
     73 CB        -48.6268  -21.2367    6.4737 C.3       3 UNK        -0.1972 
     74 N         -47.9701  -23.5990    6.2773 N.am      3 UNK        -0.4305 
     75 C         -47.8094  -24.8961    6.5743 C.2       2 UNK         0.5006 
     76 O         -48.1342  -25.3873    7.6565 O.2       2 UNK        -0.5106 
     77 CA        -47.1320  -25.7835    5.5131 C.3       2 UNK         0.0296 
     78 CB        -45.6195  -25.5067    5.4697 C.3       2 UNK        -0.2002 
     79 N         -47.3379  -27.2056    5.8039 N.am      2 UNK        -0.4032 
     80 C         -48.5202  -27.8368    5.7429 C.2       1 UNK         0.5000 
     81 O         -49.5317  -27.3474    5.2354 O.2       1 UNK        -0.5238 
     82 H82       -45.5019  -32.1861    5.0450 H         1 UNK         0.0889 
     83 H83       -44.6172  -30.6658    4.8903 H         1 UNK         0.0889 
     84 H84       -45.1201  -31.2370    6.4826 H         1 UNK         0.0889 
     85 H85       -46.9195  -30.1636    7.2647 H         1 UNK         0.3028 
     86 H86       -49.3243  -29.8094    5.8039 H         1 UNK         0.0864 
     87 H87       -48.4215  -28.6077    8.4752 H         1 UNK         0.0720 
     88 H88       -50.0249  -28.4574    7.8551 H         1 UNK         0.0720 
     89 H89       -51.5865  -30.6701    7.2949 H         1 UNK         0.0814 
     90 H90       -51.6869  -31.8220    8.5994 H         1 UNK         0.0814 
     91 H91       -52.3046  -28.3583    7.6283 H         1 UNK         0.1469 
     92 H92       -54.0280  -27.2301   11.3715 H         1 UNK         0.1381 
     93 H93       -52.1095  -31.0433   10.9690 H         1 UNK         0.1206 
     94 H94       -54.0788  -28.6933   13.2275 H         1 UNK         0.0813 
     95 H95       -52.5379  -29.4533   13.3482 H         1 UNK         0.0813 
     96 H96       -55.7417  -31.8768   11.4273 H         1 UNK         0.0638 
     97 H97       -56.5606  -31.6209   12.9284 H         1 UNK         0.0638 
     98 H98       -55.8277  -29.4770   10.8734 H         1 UNK         0.0568 
     99 H99       -58.7292  -31.2229    9.4994 H         1 UNK         0.3450 
    100 H100      -57.0423  -31.5812    9.7564 H         1 UNK         0.3450 
    101 H101      -56.3117  -27.8228   12.2596 H         1 UNK         0.2987 
    102 H102      -58.0530  -26.8183   14.1149 H         1 UNK         0.0766 
    103 H103      -57.6192  -26.5623   16.5556 H         1 UNK         0.0798 
    104 H104      -56.7475  -28.0951   16.5714 H         1 UNK         0.0798 
    105 H105      -58.4713  -28.0574   16.2195 H         1 UNK         0.0798 
    106 H106      -55.5145  -26.3232   15.2792 H         1 UNK         0.3198 
    107 H107      -53.8226  -25.1137   12.4993 H         1 UNK         0.0843 
    108 H108      -55.3352  -23.2460   14.3913 H         1 UNK         0.0831 
    109 H109      -55.4307  -23.2318   12.6367 H         1 UNK         0.0831 
    110 H110      -53.9171  -22.8276   13.4281 H         1 UNK         0.0831 
    111 H111      -52.4507  -25.4279   14.1418 H         1 UNK         0.3133 
    112 H112      -51.9449  -24.3170   16.8307 H         1 UNK         0.0566 
    113 H113      -51.6934  -25.9499   18.7158 H         1 UNK         0.0814 
    114 H114      -53.3013  -25.2522   18.6421 H         1 UNK         0.0814 
    115 H115      -53.0383  -26.8909   18.0701 H         1 UNK         0.0814 
    116 H116      -50.3819  -25.4653   15.8553 H         1 UNK         0.3091 
    117 H117      -49.3074  -28.4981   16.0730 H         1 UNK         0.0702 
    118 H118      -50.4961  -29.6947   14.3044 H         1 UNK         0.0785 
    119 H119      -50.4140  -28.2957   13.2282 H         1 UNK         0.0785 
    120 H120      -48.9498  -29.1665   13.6765 H         1 UNK         0.0785 
    121 H121      -48.7112  -26.6042   13.9432 H         1 UNK         0.2998 
    122 H122      -46.9875  -24.3206   16.0679 H         1 UNK         0.0697 
    123 H123      -45.9471  -26.1781   13.8635 H         1 UNK         0.0825 
    124 H124      -45.2681  -26.0297   15.4780 H         1 UNK         0.0825 
    125 H125      -45.2025  -24.6643   14.3751 H         1 UNK         0.0825 
    126 H126      -47.4330  -24.2004   13.2865 H         1 UNK         0.3029 
    127 H127      -50.7251  -22.7086   13.4164 H         1 UNK         0.0897 
    128 H128      -47.9530  -21.7728   12.5002 H         1 UNK         0.0792 
    129 H129      -48.9745  -20.9409   13.6649 H         1 UNK         0.0792 
    130 H130      -49.4990  -21.0969   11.9955 H         1 UNK         0.0792 
    131 H131      -49.2242  -23.4811   11.1557 H         1 UNK         0.3086 
    132 H132      -50.5874  -26.8105   10.8315 H         1 UNK         0.0583 
    133 H133      -50.5701  -24.2920    9.0990 H         1 UNK         0.1020 
    134 H134      -50.9097  -25.9053    8.5651 H         1 UNK         0.1020 
    135 H135      -54.6743  -26.1786    8.9468 H         1 UNK         0.0694 
    136 H136      -53.3547  -26.2416    7.8020 H         1 UNK         0.0694 
    137 H137      -48.5142  -25.5973    9.3643 H         1 UNK         0.2989 
    138 H138      -45.7342  -26.4283   11.4379 H         1 UNK         0.1055 
    139 H139      -46.2470  -28.4074    9.9515 H         1 UNK         0.0806 
    140 H140      -44.9337  -27.4070    9.3535 H         1 UNK         0.0806 
    141 H141      -46.5256  -27.2977    8.6138 H         1 UNK         0.0806 
    142 H142      -46.0842  -24.9488    8.9726 H         1 UNK         0.3061 
    143 H143      -46.2484  -21.7350   10.5011 H         1 UNK         0.0734 
    144 H144      -44.2414  -21.3679    9.0907 H         1 UNK         0.0832 
    145 H145      -43.8195  -22.3158   10.5063 H         1 UNK         0.0832 
    146 H146      -43.9867  -23.1078    8.9461 H         1 UNK         0.0832 
    147 H147      -46.1290  -22.5911    7.7674 H         1 UNK         0.3156 
    148 H148      -49.6524  -22.9304    7.2853 H         1 UNK         0.0589 
    149 H149      -47.6180  -20.8766    6.2683 H         1 UNK         0.0808 
    150 H150      -49.1722  -21.2657    5.5303 H         1 UNK         0.0808 
    151 H151      -49.1160  -20.4925    7.1041 H         1 UNK         0.0808 
    152 H152      -47.6666  -23.2675    5.3726 H         1 UNK         0.3098 
    153 H153      -47.5698  -25.5592    4.5383 H         1 UNK         0.0720 
    154 H154      -45.1260  -26.1258    4.7200 H         1 UNK         0.0791 
    155 H155      -45.1434  -25.7035    6.4314 H         1 UNK         0.0791 
    156 H156      -45.4135  -24.4675    5.2103 H         1 UNK         0.0791 
    157 H157      -46.5681  -27.6941    6.2345 H         1 UNK         0.3028 
@<TRIPOS>BOND
     1    1    2 1    
     2    1   82 1    
     3    1   83 1    
     4    1   84 1    
     5    2    3 2    
     6    2    4 am   BACKBONE|DICT|INTERRES
     7    4    5 1    
     8    4   85 1    
     9    5    6 1    
    10    5   80 1    
    11    5   86 1    
    12    6    7 1    
    13    6   87 1    
    14    6   88 1    
    15    7    8 1    
    16    8    9 1    
    17    8   89 1    
    18    8   90 1    
    19    9   10 ar   
    20    9   14 ar   
    21   10   11 ar   
    22   10   91 1    
    23   11   12 ar   
    24   11   58 1    
    25   12   13 ar   
    26   12   92 1    
    27   13   14 ar   
    28   13   15 1    
    29   14   93 1    
    30   15   16 1    
    31   15   94 1    
    32   15   95 1    
    33   16   17 1    
    34   17   18 1    
    35   17   96 1    
    36   17   97 1    
    37   18   19 1    
    38   18   22 1    
    39   18   98 1    
    40   19   20 am   BACKBONE|DICT|INTERRES
    41   19   21 2    
    42   20   99 1    
    43   20  100 1    
    44   22   23 am   BACKBONE|DICT|INTERRES
    45   22  101 1    
    46   23   24 2    
    47   23   25 1    
    48   25   26 1    
    49   25   27 1    
    50   25  102 1    
    51   26  103 1    
    52   26  104 1    
    53   26  105 1    
    54   27   28 am   BACKBONE|DICT|INTERRES
    55   27  106 1    
    56   28   29 2    
    57   28   30 1    
    58   30   31 1    
    59   30   32 1    
    60   30  107 1    
    61   31  108 1    
    62   31  109 1    
    63   31  110 1    
    64   32   33 am   BACKBONE|DICT|INTERRES
    65   32  111 1    
    66   33   34 2    
    67   33   35 1    
    68   35   36 1    
    69   35   37 1    
    70   35  112 1    
    71   36  113 1    
    72   36  114 1    
    73   36  115 1    
    74   37   38 am   BACKBONE|DICT|INTERRES
    75   37  116 1    
    76   38   39 2    
    77   38   40 1    
    78   40   41 1    
    79   40   42 1    
    80   40  117 1    
    81   41  118 1    
    82   41  119 1    
    83   41  120 1    
    84   42   43 am   BACKBONE|DICT|INTERRES
    85   42  121 1    
    86   43   44 2    
    87   43   45 1    
    88   45   46 1    
    89   45   47 1    
    90   45  122 1    
    91   46  123 1    
    92   46  124 1    
    93   46  125 1    
    94   47   48 am   BACKBONE|DICT|INTERRES
    95   47  126 1    
    96   48   49 2    
    97   48   50 1    
    98   50   51 1    
    99   50   52 1    
   100   50  127 1    
   101   51  128 1    
   102   51  129 1    
   103   51  130 1    
   104   52   53 am   BACKBONE|DICT|INTERRES
   105   52  131 1    
   106   53   54 2    
   107   53   55 1    
   108   55   56 1    
   109   55   59 1    
   110   55  132 1    
   111   56   57 1    
   112   56  133 1    
   113   56  134 1    
   114   57   58 1    
   115   58  135 1    
   116   58  136 1    
   117   59   60 am   BACKBONE|DICT|INTERRES
   118   59  137 1    
   119   60   61 2    
   120   60   62 1    
   121   62   63 1    
   122   62   64 1    
   123   62  138 1    
   124   63  139 1    
   125   63  140 1    
   126   63  141 1    
   127   64   65 am   BACKBONE|DICT|INTERRES
   128   64  142 1    
   129   65   66 2    
   130   65   67 1    
   131   67   68 1    
   132   67   69 1    
   133   67  143 1    
   134   68  144 1    
   135   68  145 1    
   136   68  146 1    
   137   69   70 am   BACKBONE|DICT|INTERRES
   138   69  147 1    
   139   70   71 2    
   140   70   72 1    
   141   72   73 1    
   142   72   74 1    
   143   72  148 1    
   144   73  149 1    
   145   73  150 1    
   146   73  151 1    
   147   74   75 am   BACKBONE|DICT|INTERRES
   148   74  152 1    
   149   75   76 2    
   150   75   77 1    
   151   77   78 1    
   152   77   79 1    
   153   77  153 1    
   154   78  154 1    
   155   78  155 1    
   156   78  156 1    
   157   79   80 am   BACKBONE|DICT|INTERRES
   158   79  157 1    
   159   80   81 2    
@<TRIPOS>SUBSTRUCTURE
     1 UNK         1 GROUP             0       ****    0 ROOT    
