@<TRIPOS>MOLECULE
3R207
157   159    1
SMALL
USER_CHARGES


@<TRIPOS>ATOM
      1 CA        -44.6615  -29.8319    7.4082 C.3       0 UNK        -0.1975 
      2 C         -45.6815  -29.6781    6.2897 C.2       0 UNK         0.4852 
      3 O         -45.2972  -29.5625    5.1257 O.2       0 UNK        -0.5216 
      4 N         -46.9764  -29.6853    6.6370 N.am      1 UNK        -0.4461 
      5 CA        -48.1123  -29.5800    5.7090 C.3       1 UNK         0.0864 
      6 C6        -49.4774  -29.7958    6.4165 C.3       14 UNK        -0.0898 
      7 S7        -49.5353  -31.2081    7.5782 S.3       14 UNK        -0.2598 
      8 C8        -49.6423  -30.3828    9.2062 C.3       14 UNK         0.0286 
      9 C9        -51.0361  -29.8388    9.4946 C.ar      14 UNK        -0.0844 
     10 C10       -51.3843  -28.5435    9.0997 C.ar      14 UNK        -0.0881 
     11 C11       -52.6755  -28.0480    9.3137 C.ar      14 UNK        -0.0643 
     12 C12       -53.6006  -28.8509    9.9834 C.ar      14 UNK        -0.0930 
     13 C13       -53.2600  -30.1338   10.4234 C.ar      14 UNK        -0.0827 
     14 C14       -51.9773  -30.6270   10.1649 C.ar      14 UNK        -0.1249 
     15 C15       -54.2728  -30.9723   11.1935 C.3       14 UNK         0.0141 
     16 S16       -55.8219  -31.2056   10.2586 S.3       14 UNK        -0.2313 
     17 C17       -57.0820  -31.0055   11.5645 C.3       14 UNK        -0.0915 
     18 CA        -57.6460  -29.5606   11.6261 C.3       13 UNK         0.0968 
     19 C         -58.8897  -29.4861   12.5520 C.2       13 UNK         0.5732 
     20 N         -60.0713  -29.7742   12.0240 N.am      13 UNK        -0.7310 
     21 O         -58.7918  -29.2078   13.7465 O.2       13 UNK        -0.5035 
     22 N         -56.6088  -28.6066   12.0329 N.am      13 UNK        -0.4233 
     23 C         -56.6498  -27.2831   11.8629 C.2       13 UNK         0.4989 
     24 O         -57.5567  -26.6921   11.2742 O.2       13 UNK        -0.4996 
     25 CA        -55.4637  -26.4983   12.4597 C.3       12 UNK         0.0216 
     26 CB        -55.4295  -25.0284   12.0017 C.3       12 UNK        -0.1964 
     27 N         -55.4550  -26.5371   13.9234 N.am      12 UNK        -0.4276 
     28 C         -55.1594  -27.5982   14.6841 C.2       12 UNK         0.5020 
     29 O         -54.8376  -28.6984   14.2286 O.2       12 UNK        -0.5489 
     30 CA        -55.1793  -27.3652   16.2046 C.3       11 UNK         0.0294 
     31 CB        -55.2730  -28.6812   16.9977 C.3       11 UNK        -0.2019 
     32 N         -53.9675  -26.6555   16.6055 N.am      11 UNK        -0.4493 
     33 C         -53.7230  -25.3539   16.4171 C.2       11 UNK         0.4932 
     34 O         -54.5710  -24.5563   16.0142 O.2       11 UNK        -0.5029 
     35 CA        -52.2862  -24.8666   16.6716 C.3       10 UNK         0.0280 
     36 CB        -52.0261  -24.6164   18.1693 C.3       10 UNK        -0.1976 
     37 N         -51.2590  -25.7280   16.0683 N.am      10 UNK        -0.4242 
     38 C         -50.8975  -26.9781   16.3959 C.2       10 UNK         0.5072 
     39 O         -51.4013  -27.6228   17.3171 O.2       10 UNK        -0.5224 
     40 CA        -49.8139  -27.6391   15.5283 C.3       9 UNK         0.0343 
     41 CB        -50.4605  -28.3623   14.3344 C.3       9 UNK        -0.2003 
     42 N         -48.8064  -26.6919   15.0439 N.am      9 UNK        -0.4272 
     43 C         -47.9141  -26.0626   15.8234 C.2       9 UNK         0.4988 
     44 O         -47.8017  -26.2595   17.0341 O.2       9 UNK        -0.5108 
     45 CA        -46.9958  -25.0313   15.1439 C.3       8 UNK         0.0248 
     46 CB        -45.8143  -25.7292   14.4520 C.3       8 UNK        -0.2001 
     47 N         -47.7047  -24.1784   14.1853 N.am      8 UNK        -0.4140 
     48 C         -48.6562  -23.2931   14.5194 C.2       8 UNK         0.5028 
     49 O         -48.9941  -23.0526   15.6787 O.2       8 UNK        -0.5428 
     50 CA        -49.3786  -22.5714   13.3688 C.3       7 UNK         0.0264 
     51 CB        -48.5570  -21.3720   12.8703 C.3       7 UNK        -0.1988 
     52 N         -49.6952  -23.4542   12.2440 N.am      7 UNK        -0.4454 
     53 C         -50.5125  -24.5169   12.3117 C.2       7 UNK         0.5027 
     54 O         -51.1189  -24.8527   13.3289 O.2       7 UNK        -0.5083 
     55 CA        -50.6414  -25.3669   11.0315 C.3       6 UNK         0.0844 
     56 C56       -51.6168  -24.6694   10.0494 C.3       14 UNK        -0.0967 
     57 S57       -51.7984  -25.4959    8.4382 S.3       14 UNK        -0.2604 
     58 C58       -53.1341  -26.6927    8.7740 C.3       14 UNK         0.0134 
     59 N         -49.3201  -25.6667   10.4612 N.am      6 UNK        -0.4116 
     60 C         -48.3512  -26.3348   11.1099 C.2       5 UNK         0.5034 
     61 O         -48.4986  -26.8571   12.2129 O.2       5 UNK        -0.5045 
     62 CA        -46.9588  -26.3727   10.4645 C.3       5 UNK         0.0224 
     63 CB        -46.8201  -27.5578    9.4983 C.3       5 UNK        -0.1978 
     64 N         -46.6502  -25.1183    9.7790 N.am      5 UNK        -0.4737 
     65 C         -46.3310  -23.9803   10.4108 C.2       4 UNK         0.5027 
     66 O         -46.2133  -23.8913   11.6324 O.2       4 UNK        -0.5211 
     67 CA        -46.1538  -22.7243    9.5393 C.3       4 UNK         0.0297 
     68 CB        -44.7072  -22.6225    9.0318 C.3       4 UNK        -0.1993 
     69 N         -47.0770  -22.6855    8.4016 N.am      4 UNK        -0.4486 
     70 C         -48.4088  -22.5856    8.5143 C.2       3 UNK         0.4961 
     71 O         -48.9927  -22.4497    9.5899 O.2       3 UNK        -0.5105 
     72 CA        -49.2317  -22.7100    7.2174 C.3       3 UNK         0.0299 
     73 CB        -49.4230  -21.3284    6.5727 C.3       3 UNK        -0.1972 
     74 N         -48.6845  -23.6457    6.2221 N.am      3 UNK        -0.4305 
     75 C         -48.3933  -24.9347    6.4491 C.2       2 UNK         0.5006 
     76 O         -48.4821  -25.4685    7.5579 O.2       2 UNK        -0.5106 
     77 CA        -47.8807  -25.7567    5.2575 C.3       2 UNK         0.0296 
     78 CB        -46.4800  -25.2926    4.8196 C.3       2 UNK        -0.2002 
     79 N         -47.8120  -27.1535    5.6745 N.am      2 UNK        -0.4032 
     80 C         -48.1403  -28.2312    4.9528 C.2       1 UNK         0.5000 
     81 O         -48.4688  -28.1961    3.7654 O.2       1 UNK        -0.5238 
     82 H82       -43.9914  -30.6637    7.1924 H         1 UNK         0.0889 
     83 H83       -45.1351  -30.0230    8.3710 H         1 UNK         0.0889 
     84 H84       -44.0623  -28.9261    7.4963 H         1 UNK         0.0889 
     85 H85       -47.2255  -29.8491    7.6007 H         1 UNK         0.3028 
     86 H86       -47.9884  -30.3692    4.9644 H         1 UNK         0.0864 
     87 H87       -49.7652  -28.8915    6.9453 H         1 UNK         0.0720 
     88 H88       -50.2574  -29.9543    5.6694 H         1 UNK         0.0720 
     89 H89       -49.3633  -31.1008    9.9789 H         1 UNK         0.0814 
     90 H90       -48.9078  -29.5811    9.2652 H         1 UNK         0.0814 
     91 H91       -50.6516  -27.9256    8.6049 H         1 UNK         0.1469 
     92 H92       -54.6033  -28.4846   10.1436 H         1 UNK         0.1381 
     93 H93       -51.7078  -31.6235   10.4873 H         1 UNK         0.1206 
     94 H94       -53.8634  -31.9535   11.4384 H         1 UNK         0.0813 
     95 H95       -54.4687  -30.4789   12.1454 H         1 UNK         0.0813 
     96 H96       -56.6725  -31.3094   12.5298 H         1 UNK         0.0638 
     97 H97       -57.8815  -31.7143   11.3412 H         1 UNK         0.0638 
     98 H98       -57.9708  -29.2808   10.6218 H         1 UNK         0.0568 
     99 H99       -60.8897  -29.7454   12.6118 H         1 UNK         0.3450 
    100 H100      -60.1631  -30.0158   11.0495 H         1 UNK         0.3450 
    101 H101      -55.8854  -28.9653   12.6495 H         1 UNK         0.2987 
    102 H102      -54.5459  -26.9725   12.1059 H         1 UNK         0.0766 
    103 H103      -54.5358  -24.5213   12.3668 H         1 UNK         0.0798 
    104 H104      -56.2987  -24.4738   12.3578 H         1 UNK         0.0798 
    105 H105      -55.4211  -24.9557   10.9135 H         1 UNK         0.0798 
    106 H106      -55.6468  -25.6639   14.4000 H         1 UNK         0.3198 
    107 H107      -56.0537  -26.7580   16.4492 H         1 UNK         0.0843 
    108 H108      -54.4062  -29.3211   16.8260 H         1 UNK         0.0831 
    109 H109      -56.1592  -29.2474   16.7074 H         1 UNK         0.0831 
    110 H110      -55.3435  -28.4940   18.0692 H         1 UNK         0.0831 
    111 H111      -53.1855  -27.2239   16.9236 H         1 UNK         0.3133 
    112 H112      -52.1863  -23.9076   16.1606 H         1 UNK         0.0566 
    113 H113      -51.0229  -24.2225   18.3338 H         1 UNK         0.0814 
    114 H114      -52.7314  -23.8860   18.5675 H         1 UNK         0.0814 
    115 H115      -52.1320  -25.5241   18.7638 H         1 UNK         0.0814 
    116 H116      -50.8597  -25.3519   15.2124 H         1 UNK         0.3091 
    117 H117      -49.3060  -28.3840   16.1443 H         1 UNK         0.0702 
    118 H118      -51.2094  -29.0817   14.6692 H         1 UNK         0.0785 
    119 H119      -50.9591  -27.6642   13.6605 H         1 UNK         0.0785 
    120 H120      -49.7190  -28.9118   13.7544 H         1 UNK         0.0785 
    121 H121      -48.7807  -26.5334   14.0391 H         1 UNK         0.2998 
    122 H122      -46.5924  -24.3827   15.9244 H         1 UNK         0.0697 
    123 H123      -46.1489  -26.4046   13.6649 H         1 UNK         0.0825 
    124 H124      -45.2401  -26.3212   15.1658 H         1 UNK         0.0825 
    125 H125      -45.1308  -25.0063   14.0061 H         1 UNK         0.0825 
    126 H126      -47.4280  -24.2539   13.2112 H         1 UNK         0.3029 
    127 H127      -50.3247  -22.1939   13.7629 H         1 UNK         0.0897 
    128 H128      -49.0944  -20.8150   12.1024 H         1 UNK         0.0792 
    129 H129      -47.6010  -21.6828   12.4487 H         1 UNK         0.0792 
    130 H130      -48.3445  -20.6792   13.6856 H         1 UNK         0.0792 
    131 H131      -49.2808  -23.2157   11.3458 H         1 UNK         0.3086 
    132 H132      -51.0852  -26.3228   11.3180 H         1 UNK         0.0583 
    133 H133      -52.6030  -24.5686   10.5064 H         1 UNK         0.1020 
    134 H134      -51.2910  -23.6492    9.8425 H         1 UNK         0.1020 
    135 H135      -53.8634  -26.2436    9.4488 H         1 UNK         0.0694 
    136 H136      -53.6609  -26.8731    7.8363 H         1 UNK         0.0694 
    137 H137      -49.1310  -25.3157    9.5286 H         1 UNK         0.2989 
    138 H138      -46.2251  -26.5091   11.2619 H         1 UNK         0.1055 
    139 H139      -46.8688  -28.5006   10.0444 H         1 UNK         0.0806 
    140 H140      -45.8625  -27.5336    8.9787 H         1 UNK         0.0806 
    141 H141      -47.6130  -27.5708    8.7524 H         1 UNK         0.0806 
    142 H142      -46.8387  -25.0884    8.7848 H         1 UNK         0.3061 
    143 H143      -46.3581  -21.8549   10.1679 H         1 UNK         0.0734 
    144 H144      -44.5438  -21.6971    8.4792 H         1 UNK         0.0832 
    145 H145      -44.0022  -22.6289    9.8645 H         1 UNK         0.0832 
    146 H146      -44.4464  -23.4562    8.3786 H         1 UNK         0.0832 
    147 H147      -46.6800  -22.7903    7.4794 H         1 UNK         0.3156 
    148 H148      -50.2163  -23.0863    7.4996 H         1 UNK         0.0589 
    149 H149      -48.4783  -20.9105    6.2224 H         1 UNK         0.0808 
    150 H150      -50.1056  -21.3765    5.7241 H         1 UNK         0.0808 
    151 H151      -49.8478  -20.6205    7.2861 H         1 UNK         0.0808 
    152 H152      -48.5713  -23.2861    5.2850 H         1 UNK         0.3098 
    153 H153      -48.5883  -25.6453    4.4333 H         1 UNK         0.0720 
    154 H154      -45.7608  -25.3530    5.6377 H         1 UNK         0.0791 
    155 H155      -46.4931  -24.2605    4.4679 H         1 UNK         0.0791 
    156 H156      -46.1019  -25.9055    4.0009 H         1 UNK         0.0791 
    157 H157      -47.6344  -27.2721    6.6622 H         1 UNK         0.3028 
@<TRIPOS>BOND
     1    1    2 1    
     2    1   82 1    
     3    1   83 1    
     4    1   84 1    
     5    2    3 2    
     6    2    4 am   BACKBONE|DICT|INTERRES
     7    4    5 1    
     8    4   85 1    
     9    5    6 1    
    10    5   80 1    
    11    5   86 1    
    12    6    7 1    
    13    6   87 1    
    14    6   88 1    
    15    7    8 1    
    16    8    9 1    
    17    8   89 1    
    18    8   90 1    
    19    9   10 ar   
    20    9   14 ar   
    21   10   11 ar   
    22   10   91 1    
    23   11   12 ar   
    24   11   58 1    
    25   12   13 ar   
    26   12   92 1    
    27   13   14 ar   
    28   13   15 1    
    29   14   93 1    
    30   15   16 1    
    31   15   94 1    
    32   15   95 1    
    33   16   17 1    
    34   17   18 1    
    35   17   96 1    
    36   17   97 1    
    37   18   19 1    
    38   18   22 1    
    39   18   98 1    
    40   19   20 am   BACKBONE|DICT|INTERRES
    41   19   21 2    
    42   20   99 1    
    43   20  100 1    
    44   22   23 am   BACKBONE|DICT|INTERRES
    45   22  101 1    
    46   23   24 2    
    47   23   25 1    
    48   25   26 1    
    49   25   27 1    
    50   25  102 1    
    51   26  103 1    
    52   26  104 1    
    53   26  105 1    
    54   27   28 am   BACKBONE|DICT|INTERRES
    55   27  106 1    
    56   28   29 2    
    57   28   30 1    
    58   30   31 1    
    59   30   32 1    
    60   30  107 1    
    61   31  108 1    
    62   31  109 1    
    63   31  110 1    
    64   32   33 am   BACKBONE|DICT|INTERRES
    65   32  111 1    
    66   33   34 2    
    67   33   35 1    
    68   35   36 1    
    69   35   37 1    
    70   35  112 1    
    71   36  113 1    
    72   36  114 1    
    73   36  115 1    
    74   37   38 am   BACKBONE|DICT|INTERRES
    75   37  116 1    
    76   38   39 2    
    77   38   40 1    
    78   40   41 1    
    79   40   42 1    
    80   40  117 1    
    81   41  118 1    
    82   41  119 1    
    83   41  120 1    
    84   42   43 am   BACKBONE|DICT|INTERRES
    85   42  121 1    
    86   43   44 2    
    87   43   45 1    
    88   45   46 1    
    89   45   47 1    
    90   45  122 1    
    91   46  123 1    
    92   46  124 1    
    93   46  125 1    
    94   47   48 am   BACKBONE|DICT|INTERRES
    95   47  126 1    
    96   48   49 2    
    97   48   50 1    
    98   50   51 1    
    99   50   52 1    
   100   50  127 1    
   101   51  128 1    
   102   51  129 1    
   103   51  130 1    
   104   52   53 am   BACKBONE|DICT|INTERRES
   105   52  131 1    
   106   53   54 2    
   107   53   55 1    
   108   55   56 1    
   109   55   59 1    
   110   55  132 1    
   111   56   57 1    
   112   56  133 1    
   113   56  134 1    
   114   57   58 1    
   115   58  135 1    
   116   58  136 1    
   117   59   60 am   BACKBONE|DICT|INTERRES
   118   59  137 1    
   119   60   61 2    
   120   60   62 1    
   121   62   63 1    
   122   62   64 1    
   123   62  138 1    
   124   63  139 1    
   125   63  140 1    
   126   63  141 1    
   127   64   65 am   BACKBONE|DICT|INTERRES
   128   64  142 1    
   129   65   66 2    
   130   65   67 1    
   131   67   68 1    
   132   67   69 1    
   133   67  143 1    
   134   68  144 1    
   135   68  145 1    
   136   68  146 1    
   137   69   70 am   BACKBONE|DICT|INTERRES
   138   69  147 1    
   139   70   71 2    
   140   70   72 1    
   141   72   73 1    
   142   72   74 1    
   143   72  148 1    
   144   73  149 1    
   145   73  150 1    
   146   73  151 1    
   147   74   75 am   BACKBONE|DICT|INTERRES
   148   74  152 1    
   149   75   76 2    
   150   75   77 1    
   151   77   78 1    
   152   77   79 1    
   153   77  153 1    
   154   78  154 1    
   155   78  155 1    
   156   78  156 1    
   157   79   80 am   BACKBONE|DICT|INTERRES
   158   79  157 1    
   159   80   81 2    
@<TRIPOS>SUBSTRUCTURE
     1 UNK         1 GROUP             0       ****    0 ROOT    
