@<TRIPOS>MOLECULE
3R207
157   159    1
SMALL
USER_CHARGES


@<TRIPOS>ATOM
      1 CA        -46.8789  -31.4798    7.9579 C.3       0 UNK        -0.1975 
      2 C         -47.5196  -31.1436    6.6195 C.2       0 UNK         0.4852 
      3 O         -46.8885  -31.3204    5.5770 O.2       0 UNK        -0.5216 
      4 N         -48.7689  -30.6609    6.6435 N.am      1 UNK        -0.4461 
      5 CA        -49.5381  -30.2235    5.4706 C.3       1 UNK         0.0864 
      6 C6        -51.0429  -30.0510    5.8025 C.3       14 UNK        -0.0898 
      7 S7        -51.3549  -29.0257    7.2827 S.3       14 UNK        -0.2598 
      8 C8        -52.5131  -27.7785    6.6383 C.3       14 UNK         0.0286 
      9 C9        -52.9507  -26.8134    7.7322 C.ar      14 UNK        -0.0844 
     10 C10       -52.6875  -25.4444    7.6229 C.ar      14 UNK        -0.0881 
     11 C11       -53.0869  -24.5596    8.6315 C.ar      14 UNK        -0.0643 
     12 C12       -53.7326  -25.0566    9.7667 C.ar      14 UNK        -0.0930 
     13 C13       -54.0059  -26.4222    9.8837 C.ar      14 UNK        -0.0827 
     14 C14       -53.6319  -27.2906    8.8555 C.ar      14 UNK        -0.1249 
     15 C15       -54.7150  -26.9555   11.1166 C.3       14 UNK         0.0141 
     16 S16       -53.5329  -27.5254   12.3749 S.3       14 UNK        -0.2313 
     17 C17       -53.0552  -29.1872   11.7818 C.3       14 UNK        -0.0915 
     18 CA        -54.1921  -30.2456   11.8232 C.3       13 UNK         0.0968 
     19 C         -53.6499  -31.6514   11.4342 C.2       13 UNK         0.5732 
     20 N         -53.6400  -32.6322   12.3293 N.am      13 UNK        -0.7310 
     21 O         -53.2376  -31.8567   10.2955 O.2       13 UNK        -0.5035 
     22 N         -54.9495  -30.1964   13.0842 N.am      13 UNK        -0.4233 
     23 C         -56.1708  -30.7050   13.2757 C.2       13 UNK         0.4989 
     24 O         -56.7907  -31.3362   12.4191 O.2       13 UNK        -0.4996 
     25 CA        -56.8404  -30.4420   14.6378 C.3       12 UNK         0.0216 
     26 CB        -56.3525  -31.4427   15.7046 C.3       12 UNK        -0.1964 
     27 N         -56.7444  -29.0476   15.1032 N.am      12 UNK        -0.4276 
     28 C         -55.6586  -28.3679   15.4977 C.2       12 UNK         0.5020 
     29 O         -54.5251  -28.8529   15.5580 O.2       12 UNK        -0.5489 
     30 CA        -55.8877  -26.9018   15.8890 C.3       11 UNK         0.0294 
     31 CB        -56.4036  -26.8036   17.3341 C.3       11 UNK        -0.2019 
     32 N         -54.6223  -26.1817   15.7929 N.am      11 UNK        -0.4493 
     33 C         -54.3633  -25.1253   15.0183 C.2       11 UNK         0.4932 
     34 O         -55.2186  -24.5502   14.3440 O.2       11 UNK        -0.5029 
     35 CA        -52.9082  -24.6159   14.9651 C.3       10 UNK         0.0280 
     36 CB        -52.6587  -23.5446   16.0437 C.3       10 UNK        -0.1976 
     37 N         -51.8658  -25.6542   14.9971 N.am      10 UNK        -0.4242 
     38 C         -51.5476  -26.5067   15.9833 C.2       10 UNK         0.5072 
     39 O         -52.1312  -26.5607   17.0665 O.2       10 UNK        -0.5224 
     40 CA        -50.3709  -27.4536   15.7255 C.3       9 UNK         0.0343 
     41 CB        -50.7315  -28.5314   14.6913 C.3       9 UNK        -0.2003 
     42 N         -49.2037  -26.7009   15.2673 N.am      9 UNK        -0.4272 
     43 C         -48.0758  -26.5507   15.9725 C.2       9 UNK         0.4988 
     44 O         -47.8778  -27.0607   17.0764 O.2       9 UNK        -0.5108 
     45 CA        -46.9640  -25.6981   15.3426 C.3       8 UNK         0.0248 
     46 CB        -46.0710  -26.5658   14.4403 C.3       8 UNK        -0.2001 
     47 N         -47.4534  -24.5439   14.5842 N.am      8 UNK        -0.4140 
     48 C         -48.0260  -23.4612   15.1322 C.2       8 UNK         0.5028 
     49 O         -48.2789  -23.3539   16.3325 O.2       8 UNK        -0.5428 
     50 CA        -48.3483  -22.2875   14.1962 C.3       7 UNK         0.0264 
     51 CB        -47.0685  -21.5069   13.8523 C.3       7 UNK        -0.1988 
     52 N         -48.9765  -22.7467   12.9593 N.am      7 UNK        -0.4454 
     53 C         -50.2777  -22.6110   12.6619 C.2       7 UNK         0.5027 
     54 O         -51.0882  -22.0261   13.3803 O.2       7 UNK        -0.5083 
     55 CA        -50.7619  -23.2149   11.3240 C.3       6 UNK         0.0844 
     56 C56       -50.8447  -22.0945   10.2531 C.3       14 UNK        -0.0967 
     57 S57       -51.0799  -22.6620    8.5336 S.3       14 UNK        -0.2604 
     58 C58       -52.8489  -23.0656    8.4719 C.3       14 UNK         0.0134 
     59 N         -49.9527  -24.3544   10.8882 N.am      6 UNK        -0.4116 
     60 C         -49.7711  -25.4960   11.5659 C.2       5 UNK         0.5034 
     61 O         -50.2654  -25.7362   12.6679 O.2       5 UNK        -0.5045 
     62 CA        -48.8031  -26.5111   10.9433 C.3       5 UNK         0.0224 
     63 CB        -49.5740  -27.4958   10.0525 C.3       5 UNK        -0.1978 
     64 N         -47.7195  -25.8825   10.1758 N.am      5 UNK        -0.4737 
     65 C         -46.7938  -25.0596   10.6966 C.2       4 UNK         0.5027 
     66 O         -46.7875  -24.7053   11.8756 O.2       4 UNK        -0.5211 
     67 CA        -45.7210  -24.5016    9.7453 C.3       4 UNK         0.0297 
     68 CB        -44.5310  -25.4693    9.6568 C.3       4 UNK        -0.1993 
     69 N         -46.2340  -24.2311    8.4016 N.am      4 UNK        -0.4486 
     70 C         -47.1786  -23.3238    8.1188 C.2       3 UNK         0.4961 
     71 O         -47.6271  -22.5341    8.9497 O.2       3 UNK        -0.5105 
     72 CA        -47.7350  -23.2963    6.6806 C.3       3 UNK         0.0299 
     73 CB        -47.1509  -22.1018    5.9089 C.3       3 UNK        -0.1972 
     74 N         -47.5403  -24.5196    5.8882 N.am      3 UNK        -0.4305 
     75 C         -47.9306  -25.7577    6.2236 C.2       2 UNK         0.5006 
     76 O         -48.4212  -26.0581    7.3145 O.2       2 UNK        -0.5106 
     77 CA        -47.6878  -26.8475    5.1736 C.3       2 UNK         0.0296 
     78 CB        -46.1843  -27.1331    4.9997 C.3       2 UNK        -0.2002 
     79 N         -48.3593  -28.0713    5.5969 N.am      2 UNK        -0.4032 
     80 C         -48.9449  -28.9674    4.7948 C.2       1 UNK         0.5000 
     81 O         -49.0086  -28.8523    3.5688 O.2       1 UNK        -0.5238 
     82 H82       -47.5471  -31.2732    8.7939 H         1 UNK         0.0889 
     83 H83       -45.9714  -30.8928    8.0967 H         1 UNK         0.0889 
     84 H84       -46.6109  -32.5355    7.9909 H         1 UNK         0.0889 
     85 H85       -49.2443  -30.5441    7.5279 H         1 UNK         0.3028 
     86 H86       -49.4640  -31.0234    4.7305 H         1 UNK         0.0864 
     87 H87       -51.5864  -29.6522    4.9436 H         1 UNK         0.0720 
     88 H88       -51.4819  -31.0317    5.9921 H         1 UNK         0.0720 
     89 H89       -52.0379  -27.2434    5.8145 H         1 UNK         0.0814 
     90 H90       -53.3925  -28.2762    6.2272 H         1 UNK         0.0814 
     91 H91       -52.1736  -25.0605    6.7522 H         1 UNK         0.1469 
     92 H92       -54.0339  -24.3807   10.5552 H         1 UNK         0.1381 
     93 H93       -53.8498  -28.3465    8.9368 H         1 UNK         0.1206 
     94 H94       -55.3293  -26.1695   11.5588 H         1 UNK         0.0813 
     95 H95       -55.4049  -27.7551   10.8474 H         1 UNK         0.0813 
     96 H96       -52.2254  -29.5209   12.4051 H         1 UNK         0.0638 
     97 H97       -52.6459  -29.0983   10.7751 H         1 UNK         0.0638 
     98 H98       -54.8971  -29.9901   11.0312 H         1 UNK         0.0568 
     99 H99       -53.2911  -33.5394   12.0641 H         1 UNK         0.3450 
    100 H100      -53.9775  -32.4720   13.2643 H         1 UNK         0.3450 
    101 H101      -54.5243  -29.6848   13.8537 H         1 UNK         0.2987 
    102 H102      -57.9069  -30.6237   14.4944 H         1 UNK         0.0766 
    103 H103      -56.8753  -31.2990   16.6502 H         1 UNK         0.0798 
    104 H104      -55.2831  -31.3522   15.8969 H         1 UNK         0.0798 
    105 H105      -56.5365  -32.4695   15.3859 H         1 UNK         0.0798 
    106 H106      -57.6188  -28.5402   15.0765 H         1 UNK         0.3198 
    107 H107      -56.6259  -26.4706   15.2095 H         1 UNK         0.0843 
    108 H108      -55.7022  -27.2465   18.0428 H         1 UNK         0.0831 
    109 H109      -57.3563  -27.3218   17.4498 H         1 UNK         0.0831 
    110 H110      -56.5626  -25.7655   17.6266 H         1 UNK         0.0831 
    111 H111      -53.8380  -26.6056   16.2836 H         1 UNK         0.3133 
    112 H112      -52.7924  -24.1342   13.9933 H         1 UNK         0.0566 
    113 H113      -51.6529  -23.1313   15.9644 H         1 UNK         0.0814 
    114 H114      -53.3587  -22.7153   15.9350 H         1 UNK         0.0814 
    115 H115      -52.7804  -23.9428   17.0514 H         1 UNK         0.0814 
    116 H116      -51.3441  -25.7432   14.1260 H         1 UNK         0.3091 
    117 H117      -50.1579  -27.9635   16.6673 H         1 UNK         0.0702 
    118 H118      -51.6629  -29.0346   14.9563 H         1 UNK         0.0785 
    119 H119      -50.8580  -28.1084   13.6957 H         1 UNK         0.0785 
    120 H120      -49.9544  -29.2932   14.6305 H         1 UNK         0.0785 
    121 H121      -49.2974  -26.2234   14.3776 H         1 UNK         0.2998 
    122 H122      -46.3448  -25.3164   16.1573 H         1 UNK         0.0697 
    123 H123      -46.6252  -26.9730   13.5942 H         1 UNK         0.0825 
    124 H124      -45.6564  -27.4087   14.9949 H         1 UNK         0.0825 
    125 H125      -45.2314  -25.9939   14.0447 H         1 UNK         0.0825 
    126 H126      -47.2466  -24.5472   13.5861 H         1 UNK         0.3029 
    127 H127      -49.0181  -21.6123   14.7337 H         1 UNK         0.0897 
    128 H128      -47.2933  -20.6290   13.2463 H         1 UNK         0.0792 
    129 H129      -46.3538  -22.1190   13.3001 H         1 UNK         0.0792 
    130 H130      -46.5696  -21.1567   14.7570 H         1 UNK         0.0792 
    131 H131      -48.3853  -23.2576   12.3144 H         1 UNK         0.3086 
    132 H132      -51.7699  -23.5983   11.4921 H         1 UNK         0.0583 
    133 H133      -51.6378  -21.3880   10.5054 H         1 UNK         0.1020 
    134 H134      -49.9220  -21.5094   10.2500 H         1 UNK         0.1020 
    135 H135      -53.3934  -22.4942    9.2250 H         1 UNK         0.0694 
    136 H136      -53.2441  -22.7486    7.5058 H         1 UNK         0.0694 
    137 H137      -49.4960  -24.2496    9.9927 H         1 UNK         0.2989 
    138 H138      -48.3477  -27.0732   11.7609 H         1 UNK         0.1055 
    139 H139      -50.3403  -28.0207   10.6244 H         1 UNK         0.0806 
    140 H140      -48.9150  -28.2494    9.6218 H         1 UNK         0.0806 
    141 H141      -50.0813  -26.9838    9.2332 H         1 UNK         0.0806 
    142 H142      -47.7229  -26.0483    9.1731 H         1 UNK         0.3061 
    143 H143      -45.3660  -23.5581   10.1657 H         1 UNK         0.0734 
    144 H144      -43.7245  -25.0540    9.0523 H         1 UNK         0.0832 
    145 H145      -44.1201  -25.6710   10.6472 H         1 UNK         0.0832 
    146 H146      -44.8189  -26.4278    9.2228 H         1 UNK         0.0832 
    147 H147      -45.9191  -24.8356    7.6576 H         1 UNK         0.3156 
    148 H148      -48.8122  -23.1480    6.7622 H         1 UNK         0.0589 
    149 H149      -46.0765  -22.2083    5.7537 H         1 UNK         0.0808 
    150 H150      -47.6238  -21.9872    4.9334 H         1 UNK         0.0808 
    151 H151      -47.3105  -21.1694    6.4528 H         1 UNK         0.0808 
    152 H152      -47.1253  -24.3878    4.9767 H         1 UNK         0.3098 
    153 H153      -48.1102  -26.5014    4.2278 H         1 UNK         0.0720 
    154 H154      -46.0159  -27.9199    4.2640 H         1 UNK         0.0791 
    155 H155      -45.7246  -27.4522    5.9362 H         1 UNK         0.0791 
    156 H156      -45.6460  -26.2504    4.6527 H         1 UNK         0.0791 
    157 H157      -48.4432  -28.1816    6.5993 H         1 UNK         0.3028 
@<TRIPOS>BOND
     1    1    2 1    
     2    1   82 1    
     3    1   83 1    
     4    1   84 1    
     5    2    3 2    
     6    2    4 am   BACKBONE|DICT|INTERRES
     7    4    5 1    
     8    4   85 1    
     9    5    6 1    
    10    5   80 1    
    11    5   86 1    
    12    6    7 1    
    13    6   87 1    
    14    6   88 1    
    15    7    8 1    
    16    8    9 1    
    17    8   89 1    
    18    8   90 1    
    19    9   10 ar   
    20    9   14 ar   
    21   10   11 ar   
    22   10   91 1    
    23   11   12 ar   
    24   11   58 1    
    25   12   13 ar   
    26   12   92 1    
    27   13   14 ar   
    28   13   15 1    
    29   14   93 1    
    30   15   16 1    
    31   15   94 1    
    32   15   95 1    
    33   16   17 1    
    34   17   18 1    
    35   17   96 1    
    36   17   97 1    
    37   18   19 1    
    38   18   22 1    
    39   18   98 1    
    40   19   20 am   BACKBONE|DICT|INTERRES
    41   19   21 2    
    42   20   99 1    
    43   20  100 1    
    44   22   23 am   BACKBONE|DICT|INTERRES
    45   22  101 1    
    46   23   24 2    
    47   23   25 1    
    48   25   26 1    
    49   25   27 1    
    50   25  102 1    
    51   26  103 1    
    52   26  104 1    
    53   26  105 1    
    54   27   28 am   BACKBONE|DICT|INTERRES
    55   27  106 1    
    56   28   29 2    
    57   28   30 1    
    58   30   31 1    
    59   30   32 1    
    60   30  107 1    
    61   31  108 1    
    62   31  109 1    
    63   31  110 1    
    64   32   33 am   BACKBONE|DICT|INTERRES
    65   32  111 1    
    66   33   34 2    
    67   33   35 1    
    68   35   36 1    
    69   35   37 1    
    70   35  112 1    
    71   36  113 1    
    72   36  114 1    
    73   36  115 1    
    74   37   38 am   BACKBONE|DICT|INTERRES
    75   37  116 1    
    76   38   39 2    
    77   38   40 1    
    78   40   41 1    
    79   40   42 1    
    80   40  117 1    
    81   41  118 1    
    82   41  119 1    
    83   41  120 1    
    84   42   43 am   BACKBONE|DICT|INTERRES
    85   42  121 1    
    86   43   44 2    
    87   43   45 1    
    88   45   46 1    
    89   45   47 1    
    90   45  122 1    
    91   46  123 1    
    92   46  124 1    
    93   46  125 1    
    94   47   48 am   BACKBONE|DICT|INTERRES
    95   47  126 1    
    96   48   49 2    
    97   48   50 1    
    98   50   51 1    
    99   50   52 1    
   100   50  127 1    
   101   51  128 1    
   102   51  129 1    
   103   51  130 1    
   104   52   53 am   BACKBONE|DICT|INTERRES
   105   52  131 1    
   106   53   54 2    
   107   53   55 1    
   108   55   56 1    
   109   55   59 1    
   110   55  132 1    
   111   56   57 1    
   112   56  133 1    
   113   56  134 1    
   114   57   58 1    
   115   58  135 1    
   116   58  136 1    
   117   59   60 am   BACKBONE|DICT|INTERRES
   118   59  137 1    
   119   60   61 2    
   120   60   62 1    
   121   62   63 1    
   122   62   64 1    
   123   62  138 1    
   124   63  139 1    
   125   63  140 1    
   126   63  141 1    
   127   64   65 am   BACKBONE|DICT|INTERRES
   128   64  142 1    
   129   65   66 2    
   130   65   67 1    
   131   67   68 1    
   132   67   69 1    
   133   67  143 1    
   134   68  144 1    
   135   68  145 1    
   136   68  146 1    
   137   69   70 am   BACKBONE|DICT|INTERRES
   138   69  147 1    
   139   70   71 2    
   140   70   72 1    
   141   72   73 1    
   142   72   74 1    
   143   72  148 1    
   144   73  149 1    
   145   73  150 1    
   146   73  151 1    
   147   74   75 am   BACKBONE|DICT|INTERRES
   148   74  152 1    
   149   75   76 2    
   150   75   77 1    
   151   77   78 1    
   152   77   79 1    
   153   77  153 1    
   154   78  154 1    
   155   78  155 1    
   156   78  156 1    
   157   79   80 am   BACKBONE|DICT|INTERRES
   158   79  157 1    
   159   80   81 2    
@<TRIPOS>SUBSTRUCTURE
     1 UNK         1 GROUP             0       ****    0 ROOT    
