@<TRIPOS>MOLECULE
3R207
157   159    1
SMALL
USER_CHARGES


@<TRIPOS>ATOM
      1 CA        -48.6894  -33.8938    5.2333 C.3       0 UNK        -0.1975 
      2 C         -48.1998  -32.4948    4.8889 C.2       0 UNK         0.4852 
      3 O         -47.0192  -32.3171    4.5840 O.2       0 UNK        -0.5216 
      4 N         -49.0989  -31.5036    4.9254 N.am      1 UNK        -0.4461 
      5 CA        -48.7959  -30.0866    4.7064 C.3       1 UNK         0.0864 
      6 C6        -50.0750  -29.2786    4.3551 C.3       14 UNK        -0.0898 
      7 S7        -51.3899  -29.3723    5.6206 S.3       14 UNK        -0.2598 
      8 C8        -52.5561  -28.1111    5.0253 C.3       14 UNK         0.0286 
      9 C9        -53.4965  -27.6927    6.1442 C.ar      14 UNK        -0.0844 
     10 C10       -53.1545  -26.6219    6.9737 C.ar      14 UNK        -0.0881 
     11 C11       -53.9845  -26.2508    8.0338 C.ar      14 UNK        -0.0643 
     12 C12       -55.1727  -26.9512    8.2575 C.ar      14 UNK        -0.0930 
     13 C13       -55.5260  -28.0250    7.4347 C.ar      14 UNK        -0.0827 
     14 C14       -54.6881  -28.3879    6.3743 C.ar      14 UNK        -0.1249 
     15 C15       -56.8026  -28.8035    7.7064 C.3       14 UNK         0.0141 
     16 S16       -56.4566  -30.2675    8.7352 S.3       14 UNK        -0.2313 
     17 C17       -57.7353  -30.1636   10.0386 C.3       14 UNK        -0.0915 
     18 CA        -57.1619  -29.9607   11.4680 C.3       13 UNK         0.0968 
     19 C         -56.4597  -31.2398   12.0172 C.2       13 UNK         0.5732 
     20 N         -55.1821  -31.2079   12.3810 N.am      13 UNK        -0.7310 
     21 O         -57.0977  -32.2839   12.1323 O.2       13 UNK        -0.5035 
     22 N         -56.3604  -28.7320   11.5662 N.am      13 UNK        -0.4233 
     23 C         -56.1551  -28.0542   12.7009 C.2       13 UNK         0.4989 
     24 O         -56.7092  -28.3099   13.7723 O.2       13 UNK        -0.4996 
     25 CA        -55.1386  -26.9032   12.6333 C.3       12 UNK         0.0216 
     26 CB        -55.7942  -25.5574   12.9838 C.3       12 UNK        -0.1964 
     27 N         -54.0063  -27.1418   13.5306 N.am      12 UNK        -0.4276 
     28 C         -53.1422  -28.1602   13.4260 C.2       12 UNK         0.5020 
     29 O         -53.2102  -29.0058   12.5310 O.2       12 UNK        -0.5489 
     30 CA        -52.0176  -28.2700   14.4797 C.3       11 UNK         0.0294 
     31 CB        -50.7251  -28.8360   13.8640 C.3       11 UNK        -0.2019 
     32 N         -51.6925  -27.0189   15.1771 N.am      11 UNK        -0.4493 
     33 C         -52.3956  -26.4766   16.1818 C.2       11 UNK         0.4932 
     34 O         -53.4877  -26.9117   16.5473 O.2       11 UNK        -0.5029 
     35 CA        -51.7879  -25.2394   16.8781 C.3       10 UNK         0.0280 
     36 CB        -52.3524  -25.0123   18.2966 C.3       10 UNK        -0.1976 
     37 N         -50.3190  -25.2460   16.8899 N.am      10 UNK        -0.4242 
     38 C         -49.5131  -26.1579   17.4582 C.2       10 UNK         0.5072 
     39 O         -49.9169  -27.0939   18.1498 O.2       10 UNK        -0.5224 
     40 CA        -48.0014  -26.0288   17.2000 C.3       9 UNK         0.0343 
     41 CB        -47.4523  -27.3026   16.5308 C.3       9 UNK        -0.2003 
     42 N         -47.6674  -24.8782   16.3527 N.am      9 UNK        -0.4272 
     43 C         -46.8780  -23.8618   16.7246 C.2       9 UNK         0.4988 
     44 O         -46.3808  -23.7524   17.8462 O.2       9 UNK        -0.5108 
     45 CA        -46.5630  -22.7896   15.6686 C.3       8 UNK         0.0248 
     46 CB        -45.3563  -23.2140   14.8154 C.3       8 UNK        -0.2001 
     47 N         -47.6852  -22.4513   14.7895 N.am      8 UNK        -0.4140 
     48 C         -48.7735  -21.7696   15.1770 C.2       8 UNK         0.5028 
     49 O         -49.0122  -21.4647   16.3454 O.2       8 UNK        -0.5428 
     50 CA        -49.7567  -21.3471   14.0759 C.3       7 UNK         0.0264 
     51 CB        -49.1691  -20.2074   13.2262 C.3       7 UNK        -0.1988 
     52 N         -50.0837  -22.4794   13.2130 N.am      7 UNK        -0.4454 
     53 C         -51.1917  -23.2261   13.3267 C.2       7 UNK         0.5027 
     54 O         -52.1101  -22.9728   14.1057 O.2       7 UNK        -0.5083 
     55 CA        -51.2953  -24.4851   12.4420 C.3       6 UNK         0.0844 
     56 C56       -52.2334  -24.2335   11.2406 C.3       14 UNK        -0.0967 
     57 S57       -52.4563  -25.7386   10.2428 S.3       14 UNK        -0.2604 
     58 C58       -53.5749  -25.1180    8.9573 C.3       14 UNK         0.0134 
     59 N         -49.9803  -24.9887   12.0331 N.am      6 UNK        -0.4116 
     60 C         -49.0804  -25.5269   12.8676 C.2       5 UNK         0.5034 
     61 O         -49.2903  -25.6974   14.0684 O.2       5 UNK        -0.5045 
     62 CA        -47.6994  -25.8924   12.2968 C.3       5 UNK         0.0224 
     63 CB        -47.6334  -27.3935   11.9805 C.3       5 UNK        -0.1978 
     64 N         -47.3308  -25.1224   11.1046 N.am      5 UNK        -0.4737 
     65 C         -47.1855  -23.7878   11.0689 C.2       4 UNK         0.5027 
     66 O         -47.3082  -23.0675   12.0605 O.2       4 UNK        -0.5211 
     67 CA        -46.9379  -23.1383    9.6938 C.3       4 UNK         0.0297 
     68 CB        -45.4312  -22.9646    9.4507 C.3       4 UNK        -0.1993 
     69 N         -47.5308  -23.8880    8.5805 N.am      4 UNK        -0.4486 
     70 C         -48.8337  -24.1847    8.4641 C.2       3 UNK         0.4961 
     71 O         -49.6930  -23.7448    9.2258 O.2       3 UNK        -0.5105 
     72 CA        -49.2567  -25.1701    7.3573 C.3       3 UNK         0.0299 
     73 CB        -49.9622  -24.4194    6.2163 C.3       3 UNK        -0.1972 
     74 N         -48.1846  -26.0013    6.7926 N.am      3 UNK        -0.4305 
     75 C         -47.3747  -26.8317    7.4683 C.2       2 UNK         0.5006 
     76 O         -47.3608  -26.9327    8.6965 O.2       2 UNK        -0.5106 
     77 CA        -46.4242  -27.6781    6.6003 C.3       2 UNK         0.0296 
     78 CB        -45.4367  -28.5279    7.4303 C.3       2 UNK        -0.2002 
     79 N         -47.1679  -28.5006    5.6343 N.am      2 UNK        -0.4032 
     80 C         -48.0408  -29.4832    5.9131 C.2       1 UNK         0.5000 
     81 O         -48.2802  -29.8963    7.0517 O.2       1 UNK        -0.5238 
     82 H82       -48.5196  -34.5683    4.3944 H         1 UNK         0.0889 
     83 H83       -49.7535  -33.9066    5.4686 H         1 UNK         0.0889 
     84 H84       -48.1468  -34.2788    6.0962 H         1 UNK         0.0889 
     85 H85       -50.0454  -31.6948    5.2226 H         1 UNK         0.3028 
     86 H86       -48.1292  -30.0297    3.8428 H         1 UNK         0.0864 
     87 H87       -50.4886  -29.6429    3.4133 H         1 UNK         0.0720 
     88 H88       -49.8234  -28.2306    4.1817 H         1 UNK         0.0720 
     89 H89       -53.1198  -28.5054    4.1785 H         1 UNK         0.0814 
     90 H90       -52.0087  -27.2421    4.6568 H         1 UNK         0.0814 
     91 H91       -52.2266  -26.0926    6.8133 H         1 UNK         0.1469 
     92 H92       -55.8130  -26.6698    9.0821 H         1 UNK         0.1381 
     93 H93       -54.9510  -29.2271    5.7445 H         1 UNK         0.1206 
     94 H94       -57.5352  -28.1504    8.1816 H         1 UNK         0.0813 
     95 H95       -57.2519  -29.1275    6.7665 H         1 UNK         0.0813 
     96 H96       -58.4320  -29.3558    9.8139 H         1 UNK         0.0638 
     97 H97       -58.3365  -31.0735    9.9945 H         1 UNK         0.0638 
     98 H98       -58.0275  -29.8252   12.1193 H         1 UNK         0.0568 
     99 H99       -54.7567  -32.0486   12.7360 H         1 UNK         0.3450 
    100 H100      -54.6271  -30.3610   12.3035 H         1 UNK         0.3450 
    101 H101      -55.8216  -28.5009   10.7447 H         1 UNK         0.2987 
    102 H102      -54.7506  -26.8376   11.6160 H         1 UNK         0.0766 
    103 H103      -56.6207  -25.3391   12.3063 H         1 UNK         0.0798 
    104 H104      -55.0839  -24.7348   12.9039 H         1 UNK         0.0798 
    105 H105      -56.1947  -25.5553   13.9986 H         1 UNK         0.0798 
    106 H106      -53.9436  -26.5630   14.3566 H         1 UNK         0.3198 
    107 H107      -52.3664  -28.9857   15.2272 H         1 UNK         0.0843 
    108 H108      -50.3827  -28.2255   13.0286 H         1 UNK         0.0831 
    109 H109      -50.8820  -29.8457   13.4823 H         1 UNK         0.0831 
    110 H110      -49.9205  -28.8916   14.5975 H         1 UNK         0.0831 
    111 H111      -50.8185  -26.5736   14.9102 H         1 UNK         0.3133 
    112 H112      -52.0812  -24.3807   16.2760 H         1 UNK         0.0566 
    113 H113      -51.9122  -24.1307   18.7625 H         1 UNK         0.0814 
    114 H114      -53.4315  -24.8562   18.2677 H         1 UNK         0.0814 
    115 H115      -52.1668  -25.8657   18.9494 H         1 UNK         0.0814 
    116 H116      -49.8768  -24.5194   16.3463 H         1 UNK         0.3091 
    117 H117      -47.5311  -25.9342   18.1806 H         1 UNK         0.0702 
    118 H118      -47.6375  -28.1829   17.1478 H         1 UNK         0.0785 
    119 H119      -47.9157  -27.4823   15.5604 H         1 UNK         0.0785 
    120 H120      -46.3748  -27.2366   16.3798 H         1 UNK         0.0785 
    121 H121      -48.0431  -24.9039   15.4108 H         1 UNK         0.2998 
    122 H122      -46.2843  -21.8804   16.2059 H         1 UNK         0.0697 
    123 H123      -45.5664  -24.1101   14.2316 H         1 UNK         0.0825 
    124 H124      -44.4902  -23.4293   15.4427 H         1 UNK         0.0825 
    125 H125      -45.0647  -22.4256   14.1212 H         1 UNK         0.0825 
    126 H126      -47.5554  -22.6479   13.7980 H         1 UNK         0.3029 
    127 H127      -50.6591  -20.9685   14.5617 H         1 UNK         0.0897 
    128 H128      -49.8874  -19.8599   12.4835 H         1 UNK         0.0792 
    129 H129      -48.2654  -20.5131   12.6972 H         1 UNK         0.0792 
    130 H130      -48.9086  -19.3509   13.8496 H         1 UNK         0.0792 
    131 H131      -49.3660  -22.7685   12.5587 H         1 UNK         0.3086 
    132 H132      -51.7587  -25.2576   13.0566 H         1 UNK         0.0583 
    133 H133      -53.2153  -23.9045   11.5855 H         1 UNK         0.1020 
    134 H134      -51.8503  -23.4342   10.6041 H         1 UNK         0.1020 
    135 H135      -54.4537  -24.6670    9.4211 H         1 UNK         0.0694 
    136 H136      -53.0770  -24.3294    8.3905 H         1 UNK         0.0694 
    137 H137      -49.7414  -24.8573   11.0569 H         1 UNK         0.2989 
    138 H138      -46.9622  -25.6762   13.0716 H         1 UNK         0.1055 
    139 H139      -47.8341  -27.9907   12.8710 H         1 UNK         0.0806 
    140 H140      -46.6467  -27.6796   11.6158 H         1 UNK         0.0806 
    141 H141      -48.3641  -27.6782   11.2220 H         1 UNK         0.0806 
    142 H142      -47.2496  -25.6473   10.2372 H         1 UNK         0.3061 
    143 H143      -47.4019  -22.1500    9.7119 H         1 UNK         0.0734 
    144 H144      -45.2370  -22.4269    8.5225 H         1 UNK         0.0832 
    145 H145      -44.9709  -22.3913   10.2570 H         1 UNK         0.0832 
    146 H146      -44.9163  -23.9248    9.3993 H         1 UNK         0.0832 
    147 H147      -46.8929  -24.2941    7.9124 H         1 UNK         0.3156 
    148 H148      -49.9772  -25.8537    7.8114 H         1 UNK         0.0589 
    149 H149      -49.2862  -23.7292    5.7102 H         1 UNK         0.0808 
    150 H150      -50.3609  -25.1072    5.4704 H         1 UNK         0.0808 
    151 H151      -50.8014  -23.8334    6.5946 H         1 UNK         0.0808 
    152 H152      -48.0993  -25.9804    5.7868 H         1 UNK         0.3098 
    153 H153      -45.8298  -26.9742    6.0157 H         1 UNK         0.0720 
    154 H154      -44.7682  -29.1002    6.7874 H         1 UNK         0.0791 
    155 H155      -45.9505  -29.2291    8.0885 H         1 UNK         0.0791 
    156 H156      -44.8151  -27.8922    8.0621 H         1 UNK         0.0791 
    157 H157      -47.0386  -28.2467    4.6643 H         1 UNK         0.3028 
@<TRIPOS>BOND
     1    1    2 1    
     2    1   82 1    
     3    1   83 1    
     4    1   84 1    
     5    2    3 2    
     6    2    4 am   BACKBONE|DICT|INTERRES
     7    4    5 1    
     8    4   85 1    
     9    5    6 1    
    10    5   80 1    
    11    5   86 1    
    12    6    7 1    
    13    6   87 1    
    14    6   88 1    
    15    7    8 1    
    16    8    9 1    
    17    8   89 1    
    18    8   90 1    
    19    9   10 ar   
    20    9   14 ar   
    21   10   11 ar   
    22   10   91 1    
    23   11   12 ar   
    24   11   58 1    
    25   12   13 ar   
    26   12   92 1    
    27   13   14 ar   
    28   13   15 1    
    29   14   93 1    
    30   15   16 1    
    31   15   94 1    
    32   15   95 1    
    33   16   17 1    
    34   17   18 1    
    35   17   96 1    
    36   17   97 1    
    37   18   19 1    
    38   18   22 1    
    39   18   98 1    
    40   19   20 am   BACKBONE|DICT|INTERRES
    41   19   21 2    
    42   20   99 1    
    43   20  100 1    
    44   22   23 am   BACKBONE|DICT|INTERRES
    45   22  101 1    
    46   23   24 2    
    47   23   25 1    
    48   25   26 1    
    49   25   27 1    
    50   25  102 1    
    51   26  103 1    
    52   26  104 1    
    53   26  105 1    
    54   27   28 am   BACKBONE|DICT|INTERRES
    55   27  106 1    
    56   28   29 2    
    57   28   30 1    
    58   30   31 1    
    59   30   32 1    
    60   30  107 1    
    61   31  108 1    
    62   31  109 1    
    63   31  110 1    
    64   32   33 am   BACKBONE|DICT|INTERRES
    65   32  111 1    
    66   33   34 2    
    67   33   35 1    
    68   35   36 1    
    69   35   37 1    
    70   35  112 1    
    71   36  113 1    
    72   36  114 1    
    73   36  115 1    
    74   37   38 am   BACKBONE|DICT|INTERRES
    75   37  116 1    
    76   38   39 2    
    77   38   40 1    
    78   40   41 1    
    79   40   42 1    
    80   40  117 1    
    81   41  118 1    
    82   41  119 1    
    83   41  120 1    
    84   42   43 am   BACKBONE|DICT|INTERRES
    85   42  121 1    
    86   43   44 2    
    87   43   45 1    
    88   45   46 1    
    89   45   47 1    
    90   45  122 1    
    91   46  123 1    
    92   46  124 1    
    93   46  125 1    
    94   47   48 am   BACKBONE|DICT|INTERRES
    95   47  126 1    
    96   48   49 2    
    97   48   50 1    
    98   50   51 1    
    99   50   52 1    
   100   50  127 1    
   101   51  128 1    
   102   51  129 1    
   103   51  130 1    
   104   52   53 am   BACKBONE|DICT|INTERRES
   105   52  131 1    
   106   53   54 2    
   107   53   55 1    
   108   55   56 1    
   109   55   59 1    
   110   55  132 1    
   111   56   57 1    
   112   56  133 1    
   113   56  134 1    
   114   57   58 1    
   115   58  135 1    
   116   58  136 1    
   117   59   60 am   BACKBONE|DICT|INTERRES
   118   59  137 1    
   119   60   61 2    
   120   60   62 1    
   121   62   63 1    
   122   62   64 1    
   123   62  138 1    
   124   63  139 1    
   125   63  140 1    
   126   63  141 1    
   127   64   65 am   BACKBONE|DICT|INTERRES
   128   64  142 1    
   129   65   66 2    
   130   65   67 1    
   131   67   68 1    
   132   67   69 1    
   133   67  143 1    
   134   68  144 1    
   135   68  145 1    
   136   68  146 1    
   137   69   70 am   BACKBONE|DICT|INTERRES
   138   69  147 1    
   139   70   71 2    
   140   70   72 1    
   141   72   73 1    
   142   72   74 1    
   143   72  148 1    
   144   73  149 1    
   145   73  150 1    
   146   73  151 1    
   147   74   75 am   BACKBONE|DICT|INTERRES
   148   74  152 1    
   149   75   76 2    
   150   75   77 1    
   151   77   78 1    
   152   77   79 1    
   153   77  153 1    
   154   78  154 1    
   155   78  155 1    
   156   78  156 1    
   157   79   80 am   BACKBONE|DICT|INTERRES
   158   79  157 1    
   159   80   81 2    
@<TRIPOS>SUBSTRUCTURE
     1 UNK         1 GROUP             0       ****    0 ROOT    
