@<TRIPOS>MOLECULE
3R207
157   159    1
SMALL
USER_CHARGES


@<TRIPOS>ATOM
      1 CA        -45.8554  -30.2567    2.2581 C.3       0 UNK        -0.1975 
      2 C         -47.0014  -29.4325    2.8261 C.2       0 UNK         0.4852 
      3 O         -47.8693  -28.9927    2.0712 O.2       0 UNK        -0.5216 
      4 N         -47.0118  -29.2255    4.1508 N.am      1 UNK        -0.4461 
      5 CA        -48.0174  -28.4392    4.8750 C.3       1 UNK         0.0864 
      6 C6        -47.9000  -28.6757    6.4059 C.3       14 UNK        -0.0898 
      7 S7        -49.0850  -27.7434    7.4376 S.3       14 UNK        -0.2598 
      8 C8        -50.5332  -28.8499    7.3944 C.3       14 UNK         0.0286 
      9 C9        -51.6386  -28.3545    8.3170 C.ar      14 UNK        -0.0844 
     10 C10       -52.2509  -27.1235    8.0714 C.ar      14 UNK        -0.0881 
     11 C11       -53.2364  -26.6333    8.9329 C.ar      14 UNK        -0.0643 
     12 C12       -53.6503  -27.4091   10.0190 C.ar      14 UNK        -0.0930 
     13 C13       -53.0526  -28.6467   10.2714 C.ar      14 UNK        -0.0827 
     14 C14       -52.0462  -29.1141    9.4189 C.ar      14 UNK        -0.1249 
     15 C15       -53.4832  -29.4710   11.4736 C.3       14 UNK         0.0141 
     16 S16       -54.9317  -30.4932   11.0714 S.3       14 UNK        -0.2313 
     17 C17       -54.9992  -31.5968   12.5210 C.3       14 UNK        -0.0915 
     18 CA        -56.2941  -31.4232   13.3732 C.3       13 UNK         0.0968 
     19 C         -56.4440  -32.4951   14.4986 C.2       13 UNK         0.5732 
     20 N         -56.0533  -33.7393   14.2540 N.am      13 UNK        -0.7310 
     21 O         -56.9627  -32.2284   15.5823 O.2       13 UNK        -0.5035 
     22 N         -56.5028  -30.0501   13.8686 N.am      13 UNK        -0.4233 
     23 C         -55.7039  -29.3872   14.7139 C.2       13 UNK         0.4989 
     24 O         -54.5929  -29.7792   15.0729 O.2       13 UNK        -0.4996 
     25 CA        -56.2548  -28.0712   15.2826 C.3       12 UNK         0.0216 
     26 CB        -56.2408  -28.0829   16.8207 C.3       12 UNK        -0.1964 
     27 N         -55.4841  -26.9276   14.7975 N.am      12 UNK        -0.4276 
     28 C         -55.6735  -26.3533   13.6018 C.2       12 UNK         0.5020 
     29 O         -56.4981  -26.7697   12.7863 O.2       12 UNK        -0.5489 
     30 CA        -54.8227  -25.1234   13.2203 C.3       11 UNK         0.0294 
     31 CB        -55.6998  -23.9637   12.7054 C.3       11 UNK        -0.2019 
     32 N         -53.8861  -24.6485   14.2445 N.am      11 UNK        -0.4493 
     33 C         -54.1398  -24.1240   15.4510 C.2       11 UNK         0.4932 
     34 O         -55.2697  -23.9458   15.9076 O.2       11 UNK        -0.5029 
     35 CA        -52.8894  -23.7948   16.2941 C.3       10 UNK         0.0280 
     36 CB        -53.2233  -23.4075   17.7502 C.3       10 UNK        -0.1976 
     37 N         -51.8983  -24.8814   16.2517 N.am      10 UNK        -0.4242 
     38 C         -52.0948  -26.1595   16.6137 C.2       10 UNK         0.5072 
     39 O         -53.1422  -26.5680   17.1156 O.2       10 UNK        -0.5224 
     40 CA        -50.9723  -27.1748   16.3355 C.3       9 UNK         0.0343 
     41 CB        -51.4877  -28.3039   15.4273 C.3       9 UNK        -0.2003 
     42 N         -49.7789  -26.5822   15.7236 N.am      9 UNK        -0.4272 
     43 C         -48.7419  -26.0941   16.4184 C.2       9 UNK         0.4988 
     44 O         -48.7056  -26.0435   17.6485 O.2       9 UNK        -0.5108 
     45 CA        -47.5353  -25.5813   15.6132 C.3       8 UNK         0.0248 
     46 CB        -46.6702  -26.7566   15.1322 C.3       8 UNK        -0.2001 
     47 N         -47.9021  -24.7328   14.4758 N.am      8 UNK        -0.4140 
     48 C         -48.4888  -23.5318   14.5915 C.2       8 UNK         0.5028 
     49 O         -48.8091  -23.0237   15.6666 O.2       8 UNK        -0.5428 
     50 CA        -48.7880  -22.7718   13.2892 C.3       7 UNK         0.0264 
     51 CB        -47.5181  -22.1028   12.7391 C.3       7 UNK        -0.1988 
     52 N         -49.3771  -23.6220   12.2562 N.am      7 UNK        -0.4454 
     53 C         -50.5620  -24.2395   12.3600 C.2       7 UNK         0.5027 
     54 O         -51.3022  -24.1476   13.3385 O.2       7 UNK        -0.5083 
     55 CA        -50.9555  -25.1642   11.1941 C.3       6 UNK         0.0844 
     56 C56       -51.3907  -24.3499    9.9428 C.3       14 UNK        -0.0967 
     57 S57       -53.1905  -24.0371    9.9358 S.3       14 UNK        -0.2604 
     58 C58       -53.8123  -25.2422    8.7130 C.3       14 UNK         0.0134 
     59 N         -49.8925  -26.1325   10.9099 N.am      6 UNK        -0.4116 
     60 C         -49.4196  -27.0324   11.7877 C.2       5 UNK         0.5034 
     61 O         -49.8779  -27.2017   12.9159 O.2       5 UNK        -0.5045 
     62 CA        -48.1776  -27.8354   11.3716 C.3       5 UNK         0.0224 
     63 CB        -48.5616  -29.2066   10.7978 C.3       5 UNK        -0.1978 
     64 N         -47.3270  -27.0977   10.4332 N.am      5 UNK        -0.4737 
     65 C         -46.5907  -26.0375   10.7963 C.2       4 UNK         0.5027 
     66 O         -46.5375  -25.6050   11.9486 O.2       4 UNK        -0.5211 
     67 CA        -45.8297  -25.3125    9.6768 C.3       4 UNK         0.0297 
     68 CB        -44.6622  -26.1685    9.1588 C.3       4 UNK        -0.1993 
     69 N         -46.6843  -24.9155    8.5542 N.am      4 UNK        -0.4486 
     70 C         -47.7335  -24.0848    8.6289 C.2       3 UNK         0.4961 
     71 O         -48.1602  -23.6336    9.6916 O.2       3 UNK        -0.5105 
     72 CA        -48.4591  -23.6968    7.3230 C.3       3 UNK         0.0299 
     73 CB        -48.5762  -22.1659    7.1823 C.3       3 UNK        -0.1972 
     74 N         -47.9274  -24.2971    6.0910 N.am      3 UNK        -0.4305 
     75 C         -46.7329  -24.1249    5.5056 C.2       2 UNK         0.5006 
     76 O         -45.8479  -23.3985    5.9586 O.2       2 UNK        -0.5106 
     77 CA        -46.4753  -24.9526    4.2257 C.3       2 UNK         0.0296 
     78 CB        -45.0421  -24.7836    3.6867 C.3       2 UNK        -0.2002 
     79 N         -46.7385  -26.3821    4.4312 N.am      2 UNK        -0.4032 
     80 C         -47.9553  -26.9417    4.5060 C.2       1 UNK         0.5000 
     81 O         -49.0006  -26.3104    4.3339 O.2       1 UNK        -0.5238 
     82 H82       -45.1659  -30.5879    3.0344 H         1 UNK         0.0889 
     83 H83       -45.2930  -29.6676    1.5342 H         1 UNK         0.0889 
     84 H84       -46.2438  -31.1395    1.7511 H         1 UNK         0.0889 
     85 H85       -46.2784  -29.6314    4.7151 H         1 UNK         0.3028 
     86 H86       -48.9987  -28.7999    4.5589 H         1 UNK         0.0864 
     87 H87       -48.0117  -29.7387    6.6255 H         1 UNK         0.0720 
     88 H88       -46.8981  -28.4105    6.7485 H         1 UNK         0.0720 
     89 H89       -50.2267  -29.8596    7.6720 H         1 UNK         0.0814 
     90 H90       -50.9143  -28.9088    6.3740 H         1 UNK         0.0814 
     91 H91       -51.9272  -26.5292    7.2276 H         1 UNK         0.1469 
     92 H92       -54.4236  -27.0407   10.6783 H         1 UNK         0.1381 
     93 H93       -51.5800  -30.0696    9.6167 H         1 UNK         0.1206 
     94 H94       -52.6599  -30.1087   11.7994 H         1 UNK         0.0813 
     95 H95       -53.7201  -28.8186   12.3158 H         1 UNK         0.0813 
     96 H96       -54.1090  -31.4654   13.1372 H         1 UNK         0.0638 
     97 H97       -54.9353  -32.6106   12.1245 H         1 UNK         0.0638 
     98 H98       -57.1410  -31.6092   12.7121 H         1 UNK         0.0568 
     99 H99       -56.1684  -34.4363   14.9731 H         1 UNK         0.3450 
    100 H100      -55.6497  -33.9964   13.3674 H         1 UNK         0.3450 
    101 H101      -57.3921  -29.6379   13.6275 H         1 UNK         0.2987 
    102 H102      -57.2947  -27.9532   14.9692 H         1 UNK         0.0766 
    103 H103      -56.6409  -27.1547   17.2293 H         1 UNK         0.0798 
    104 H104      -55.2335  -28.2157   17.2170 H         1 UNK         0.0798 
    105 H105      -56.8508  -28.9001   17.2078 H         1 UNK         0.0798 
    106 H106      -54.7708  -26.5632   15.4170 H         1 UNK         0.3198 
    107 H107      -54.1938  -25.4494   12.3926 H         1 UNK         0.0843 
    108 H108      -56.4030  -23.6191   13.4638 H         1 UNK         0.0831 
    109 H109      -56.2833  -24.2706   11.8364 H         1 UNK         0.0831 
    110 H110      -55.0913  -23.1134   12.3976 H         1 UNK         0.0831 
    111 H111      -52.9039  -24.6714   13.9689 H         1 UNK         0.3133 
    112 H112      -52.4174  -22.9321   15.8214 H         1 UNK         0.0566 
    113 H113      -52.3214  -23.1645   18.3120 H         1 UNK         0.0814 
    114 H114      -53.8706  -22.5303   17.7810 H         1 UNK         0.0814 
    115 H115      -53.7406  -24.2103   18.2765 H         1 UNK         0.0814 
    116 H116      -51.0180  -24.6514   15.8091 H         1 UNK         0.3091 
    117 H117      -50.6996  -27.6220   17.2936 H         1 UNK         0.0702 
    118 H118      -52.2687  -28.8754   15.9291 H         1 UNK         0.0785 
    119 H119      -50.6940  -29.0040   15.1665 H         1 UNK         0.0785 
    120 H120      -51.9137  -27.9174   14.5003 H         1 UNK         0.0785 
    121 H121      -49.7319  -26.6204   14.7072 H         1 UNK         0.2998 
    122 H122      -46.9261  -24.9739   16.2860 H         1 UNK         0.0697 
    123 H123      -47.2271  -27.4230   14.4746 H         1 UNK         0.0825 
    124 H124      -46.3197  -27.3524   15.9760 H         1 UNK         0.0825 
    125 H125      -45.7891  -26.4093   14.5922 H         1 UNK         0.0825 
    126 H126      -47.6271  -25.0551   13.5519 H         1 UNK         0.3029 
    127 H127      -49.5121  -21.9886   13.5238 H         1 UNK         0.0897 
    128 H128      -47.7412  -21.4902   11.8653 H         1 UNK         0.0792 
    129 H129      -47.0637  -21.4508   13.4863 H         1 UNK         0.0792 
    130 H130      -46.7683  -22.8386   12.4454 H         1 UNK         0.0792 
    131 H131      -48.8419  -23.7329   11.3956 H         1 UNK         0.3086 
    132 H132      -51.8022  -25.7638   11.5343 H         1 UNK         0.0583 
    133 H133      -50.8735  -23.3907    9.8737 H         1 UNK         0.1020 
    134 H134      -51.1198  -24.8707    9.0262 H         1 UNK         0.1020 
    135 H135      -54.9006  -25.2832    8.7761 H         1 UNK         0.0694 
    136 H136      -53.5763  -24.8814    7.7107 H         1 UNK         0.0694 
    137 H137      -49.4323  -26.0582   10.0160 H         1 UNK         0.2989 
    138 H138      -47.5935  -28.0178   12.2751 H         1 UNK         0.1055 
    139 H139      -47.6805  -29.7850   10.5202 H         1 UNK         0.0806 
    140 H140      -49.1967  -29.1175    9.9206 H         1 UNK         0.0806 
    141 H141      -49.1152  -29.7908   11.5343 H         1 UNK         0.0806 
    142 H142      -47.3474  -27.3798    9.4629 H         1 UNK         0.3061 
    143 H143      -45.4138  -24.3987   10.1067 H         1 UNK         0.0734 
    144 H144      -44.0479  -25.6123    8.4503 H         1 UNK         0.0832 
    145 H145      -44.0101  -26.4744    9.9782 H         1 UNK         0.0832 
    146 H146      -45.0085  -27.0756    8.6620 H         1 UNK         0.0832 
    147 H147      -46.3961  -25.2147    7.6351 H         1 UNK         0.3156 
    148 H148      -49.4703  -24.0930    7.4195 H         1 UNK         0.0589 
    149 H149      -47.5978  -21.6883    7.1225 H         1 UNK         0.0808 
    150 H150      -49.1398  -21.8909    6.2909 H         1 UNK         0.0808 
    151 H151      -49.0955  -21.7316    8.0378 H         1 UNK         0.0808 
    152 H152      -48.5572  -24.9439    5.6207 H         1 UNK         0.3098 
    153 H153      -47.1609  -24.5785    3.4623 H         1 UNK         0.0720 
    154 H154      -44.8995  -25.3373    2.7584 H         1 UNK         0.0791 
    155 H155      -44.2965  -25.1305    4.4033 H         1 UNK         0.0791 
    156 H156      -44.8258  -23.7362    3.4718 H         1 UNK         0.0791 
    157 H157      -45.9333  -26.9698    4.5910 H         1 UNK         0.3028 
@<TRIPOS>BOND
     1    1    2 1    
     2    1   82 1    
     3    1   83 1    
     4    1   84 1    
     5    2    3 2    
     6    2    4 am   BACKBONE|DICT|INTERRES
     7    4    5 1    
     8    4   85 1    
     9    5    6 1    
    10    5   80 1    
    11    5   86 1    
    12    6    7 1    
    13    6   87 1    
    14    6   88 1    
    15    7    8 1    
    16    8    9 1    
    17    8   89 1    
    18    8   90 1    
    19    9   10 ar   
    20    9   14 ar   
    21   10   11 ar   
    22   10   91 1    
    23   11   12 ar   
    24   11   58 1    
    25   12   13 ar   
    26   12   92 1    
    27   13   14 ar   
    28   13   15 1    
    29   14   93 1    
    30   15   16 1    
    31   15   94 1    
    32   15   95 1    
    33   16   17 1    
    34   17   18 1    
    35   17   96 1    
    36   17   97 1    
    37   18   19 1    
    38   18   22 1    
    39   18   98 1    
    40   19   20 am   BACKBONE|DICT|INTERRES
    41   19   21 2    
    42   20   99 1    
    43   20  100 1    
    44   22   23 am   BACKBONE|DICT|INTERRES
    45   22  101 1    
    46   23   24 2    
    47   23   25 1    
    48   25   26 1    
    49   25   27 1    
    50   25  102 1    
    51   26  103 1    
    52   26  104 1    
    53   26  105 1    
    54   27   28 am   BACKBONE|DICT|INTERRES
    55   27  106 1    
    56   28   29 2    
    57   28   30 1    
    58   30   31 1    
    59   30   32 1    
    60   30  107 1    
    61   31  108 1    
    62   31  109 1    
    63   31  110 1    
    64   32   33 am   BACKBONE|DICT|INTERRES
    65   32  111 1    
    66   33   34 2    
    67   33   35 1    
    68   35   36 1    
    69   35   37 1    
    70   35  112 1    
    71   36  113 1    
    72   36  114 1    
    73   36  115 1    
    74   37   38 am   BACKBONE|DICT|INTERRES
    75   37  116 1    
    76   38   39 2    
    77   38   40 1    
    78   40   41 1    
    79   40   42 1    
    80   40  117 1    
    81   41  118 1    
    82   41  119 1    
    83   41  120 1    
    84   42   43 am   BACKBONE|DICT|INTERRES
    85   42  121 1    
    86   43   44 2    
    87   43   45 1    
    88   45   46 1    
    89   45   47 1    
    90   45  122 1    
    91   46  123 1    
    92   46  124 1    
    93   46  125 1    
    94   47   48 am   BACKBONE|DICT|INTERRES
    95   47  126 1    
    96   48   49 2    
    97   48   50 1    
    98   50   51 1    
    99   50   52 1    
   100   50  127 1    
   101   51  128 1    
   102   51  129 1    
   103   51  130 1    
   104   52   53 am   BACKBONE|DICT|INTERRES
   105   52  131 1    
   106   53   54 2    
   107   53   55 1    
   108   55   56 1    
   109   55   59 1    
   110   55  132 1    
   111   56   57 1    
   112   56  133 1    
   113   56  134 1    
   114   57   58 1    
   115   58  135 1    
   116   58  136 1    
   117   59   60 am   BACKBONE|DICT|INTERRES
   118   59  137 1    
   119   60   61 2    
   120   60   62 1    
   121   62   63 1    
   122   62   64 1    
   123   62  138 1    
   124   63  139 1    
   125   63  140 1    
   126   63  141 1    
   127   64   65 am   BACKBONE|DICT|INTERRES
   128   64  142 1    
   129   65   66 2    
   130   65   67 1    
   131   67   68 1    
   132   67   69 1    
   133   67  143 1    
   134   68  144 1    
   135   68  145 1    
   136   68  146 1    
   137   69   70 am   BACKBONE|DICT|INTERRES
   138   69  147 1    
   139   70   71 2    
   140   70   72 1    
   141   72   73 1    
   142   72   74 1    
   143   72  148 1    
   144   73  149 1    
   145   73  150 1    
   146   73  151 1    
   147   74   75 am   BACKBONE|DICT|INTERRES
   148   74  152 1    
   149   75   76 2    
   150   75   77 1    
   151   77   78 1    
   152   77   79 1    
   153   77  153 1    
   154   78  154 1    
   155   78  155 1    
   156   78  156 1    
   157   79   80 am   BACKBONE|DICT|INTERRES
   158   79  157 1    
   159   80   81 2    
@<TRIPOS>SUBSTRUCTURE
     1 UNK         1 GROUP             0       ****    0 ROOT    
