@<TRIPOS>MOLECULE
3R207
157   159    1
SMALL
USER_CHARGES


@<TRIPOS>ATOM
      1 CA        -47.6451  -30.9983    1.8367 C.3       0 UNK        -0.1975 
      2 C         -47.6127  -30.6773    3.3243 C.2       0 UNK         0.4852 
      3 O         -47.0865  -31.4754    4.1004 O.2       0 UNK        -0.5216 
      4 N         -48.1863  -29.5262    3.7073 N.am      1 UNK        -0.4461 
      5 CA        -48.2370  -28.9397    5.0541 C.3       1 UNK         0.0864 
      6 C6        -48.7352  -29.9221    6.1495 C.3       14 UNK        -0.0898 
      7 S7        -49.5157  -29.0580    7.5509 S.3       14 UNK        -0.2598 
      8 C8        -51.2710  -29.3064    7.1607 C.3       14 UNK         0.0286 
      9 C9        -52.1563  -28.6222    8.1873 C.ar      14 UNK        -0.0844 
     10 C10       -52.5244  -27.2852    8.0175 C.ar      14 UNK        -0.0881 
     11 C11       -53.3582  -26.6567    8.9469 C.ar      14 UNK        -0.0643 
     12 C12       -53.8322  -27.3788   10.0467 C.ar      14 UNK        -0.0930 
     13 C13       -53.4544  -28.7109   10.2349 C.ar      14 UNK        -0.0827 
     14 C14       -52.6158  -29.3276    9.3024 C.ar      14 UNK        -0.1249 
     15 C15       -53.9444  -29.4889   11.4438 C.3       14 UNK         0.0141 
     16 S16       -55.4463  -30.4345   11.0458 S.3       14 UNK        -0.2313 
     17 C17       -55.5244  -31.5746   12.4678 C.3       14 UNK        -0.0915 
     18 CA        -56.7584  -31.3452   13.3904 C.3       13 UNK         0.0968 
     19 C         -56.8730  -32.4341   14.5019 C.2       13 UNK         0.5732 
     20 N         -57.3342  -32.1107   15.7046 N.am      13 UNK        -0.7310 
     21 O         -56.5737  -33.6024   14.2649 O.2       13 UNK        -0.5035 
     22 N         -56.8981  -29.9595   13.8798 N.am      13 UNK        -0.4233 
     23 C         -56.0019  -29.2813   14.6071 C.2       13 UNK         0.4989 
     24 O         -54.8868  -29.7065   14.9120 O.2       13 UNK        -0.4996 
     25 CA        -56.4441  -27.9015   15.1052 C.3       12 UNK         0.0216 
     26 CB        -56.4559  -27.8528   16.6430 C.3       12 UNK        -0.1964 
     27 N         -55.5303  -26.8778   14.6044 N.am      12 UNK        -0.4276 
     28 C         -55.8122  -26.0327   13.6019 C.2       12 UNK         0.5020 
     29 O         -56.8570  -26.0915   12.9509 O.2       12 UNK        -0.5489 
     30 CA        -54.7773  -24.9402   13.2467 C.3       11 UNK         0.0294 
     31 CB        -55.4441  -23.6104   12.8386 C.3       11 UNK        -0.2019 
     32 N         -53.7492  -24.7087   14.2649 N.am      11 UNK        -0.4493 
     33 C         -53.9117  -24.3288   15.5417 C.2       11 UNK         0.4932 
     34 O         -54.9934  -23.9997   16.0307 O.2       11 UNK        -0.5029 
     35 CA        -52.6475  -24.3736   16.4268 C.3       10 UNK         0.0280 
     36 CB        -52.9759  -24.5208   17.9273 C.3       10 UNK        -0.1976 
     37 N         -51.6874  -25.4051   16.0048 N.am      10 UNK        -0.4242 
     38 C         -51.9161  -26.7235   15.8730 C.2       10 UNK         0.5072 
     39 O         -52.9861  -27.2524   16.1741 O.2       10 UNK        -0.5224 
     40 CA        -50.8124  -27.5997   15.2452 C.3       9 UNK         0.0343 
     41 CB        -51.3190  -28.2501   13.9445 C.3       9 UNK        -0.2003 
     42 N         -49.5787  -26.8660   14.9539 N.am      9 UNK        -0.4272 
     43 C         -48.6433  -26.5510   15.8601 C.2       9 UNK         0.4988 
     44 O         -48.6728  -26.9235   17.0333 O.2       9 UNK        -0.5108 
     45 CA        -47.5025  -25.6304   15.3903 C.3       8 UNK         0.0248 
     46 CB        -46.3548  -26.4600   14.7934 C.3       8 UNK        -0.2001 
     47 N         -47.9335  -24.6123   14.4242 N.am      8 UNK        -0.4140 
     48 C         -48.8427  -23.6573   14.6724 C.2       8 UNK         0.5028 
     49 O         -49.3920  -23.5073   15.7633 O.2       8 UNK        -0.5428 
     50 CA        -49.2621  -22.7568   13.4978 C.3       7 UNK         0.0264 
     51 CB        -48.2245  -21.6507   13.2522 C.3       7 UNK        -0.1988 
     52 N         -49.5007  -23.5024   12.2593 N.am      7 UNK        -0.4454 
     53 C         -50.4318  -24.4581   12.1092 C.2       7 UNK         0.5027 
     54 O         -51.2079  -24.8051   13.0005 O.2       7 UNK        -0.5083 
     55 CA        -50.4621  -25.1871   10.7500 C.3       6 UNK         0.0844 
     56 C56       -51.1789  -24.3564    9.6526 C.3       14 UNK        -0.0967 
     57 S57       -52.9595  -24.1096    9.9808 S.3       14 UNK        -0.2604 
     58 C58       -53.7514  -25.1997    8.7570 C.3       14 UNK         0.0134 
     59 N         -49.1045  -25.5719   10.3510 N.am      6 UNK        -0.4116 
     60 C         -48.3495  -26.4793   10.9903 C.2       5 UNK         0.5034 
     61 O         -48.7454  -27.1550   11.9399 O.2       5 UNK        -0.5045 
     62 CA        -46.8856  -26.6166   10.5319 C.3       5 UNK         0.0224 
     63 CB        -46.7630  -27.6190    9.3769 C.3       5 UNK        -0.1978 
     64 N         -46.2907  -25.3363   10.1363 N.am      5 UNK        -0.4737 
     65 C         -46.0144  -24.3455   10.9967 C.2       4 UNK         0.5027 
     66 O         -46.1808  -24.4357   12.2110 O.2       4 UNK        -0.5211 
     67 CA        -45.5267  -23.0114   10.4049 C.3       4 UNK         0.0297 
     68 CB        -43.9952  -23.0043   10.2864 C.3       4 UNK        -0.1993 
     69 N         -46.1206  -22.7094    9.1007 N.am      4 UNK        -0.4486 
     70 C         -47.4334  -22.5952    8.8592 C.2       3 UNK         0.4961 
     71 O         -48.2955  -22.6625    9.7353 O.2       3 UNK        -0.5105 
     72 CA        -47.8649  -22.4402    7.3905 C.3       3 UNK         0.0299 
     73 CB        -46.8555  -21.6333    6.5439 C.3       3 UNK        -0.1972 
     74 N         -48.1679  -23.7280    6.7468 N.am      3 UNK        -0.4305 
     75 C         -47.3517  -24.7854    6.6116 C.2       2 UNK         0.5006 
     76 O         -46.2241  -24.8567    7.1104 O.2       2 UNK        -0.5106 
     77 CA        -47.8751  -25.9591    5.7664 C.3       2 UNK         0.0296 
     78 CB        -48.2223  -25.5015    4.3330 C.3       2 UNK        -0.2002 
     79 N         -46.8242  -26.9760    5.7258 N.am      2 UNK        -0.4032 
     80 C         -46.8840  -28.2805    5.4253 C.2       1 UNK         0.5000 
     81 O         -45.8658  -28.9726    5.4532 O.2       1 UNK        -0.5238 
     82 H82       -48.1464  -30.2213    1.2598 H         1 UNK         0.0889 
     83 H83       -48.1708  -31.9377    1.6672 H         1 UNK         0.0889 
     84 H84       -46.6301  -31.1022    1.4539 H         1 UNK         0.0889 
     85 H85       -48.5862  -28.9407    2.9872 H         1 UNK         0.3028 
     86 H86       -49.0011  -28.1719    4.9568 H         1 UNK         0.0864 
     87 H87       -49.4599  -30.6201    5.7276 H         1 UNK         0.0720 
     88 H88       -47.9210  -30.5424    6.5291 H         1 UNK         0.0720 
     89 H89       -51.4901  -30.3750    7.1289 H         1 UNK         0.0814 
     90 H90       -51.4827  -28.9169    6.1636 H         1 UNK         0.0814 
     91 H91       -52.1614  -26.7360    7.1597 H         1 UNK         0.1469 
     92 H92       -54.4920  -26.9020   10.7566 H         1 UNK         0.1381 
     93 H93       -52.3269  -30.3606    9.4414 H         1 UNK         0.1206 
     94 H94       -53.1576  -30.1655   11.7808 H         1 UNK         0.0813 
     95 H95       -54.1475  -28.8135   12.2758 H         1 UNK         0.0813 
     96 H96       -54.5994  -31.5218   13.0432 H         1 UNK         0.0638 
     97 H97       -55.5511  -32.5832   12.0518 H         1 UNK         0.0638 
     98 H98       -57.6416  -31.5083   12.7722 H         1 UNK         0.0568 
     99 H99       -57.4143  -32.8271   16.4090 H         1 UNK         0.3450 
    100 H100      -57.6008  -31.1634   15.9152 H         1 UNK         0.3450 
    101 H101      -57.7860  -29.5229   13.6778 H         1 UNK         0.2987 
    102 H102      -57.4624  -27.7035   14.7636 H         1 UNK         0.0766 
    103 H103      -56.7756  -26.8750   17.0041 H         1 UNK         0.0798 
    104 H104      -55.4696  -28.0551   17.0631 H         1 UNK         0.0798 
    105 H105      -57.1438  -28.5927   17.0535 H         1 UNK         0.0798 
    106 H106      -54.6260  -26.8322   15.0675 H         1 UNK         0.3198 
    107 H107      -54.2366  -25.3154   12.3791 H         1 UNK         0.0843 
    108 H108      -56.0541  -23.2000   13.6436 H         1 UNK         0.0831 
    109 H109      -56.0940  -23.7470   11.9734 H         1 UNK         0.0831 
    110 H110      -54.6996  -22.8632   12.5638 H         1 UNK         0.0831 
    111 H111      -52.7960  -24.8926   13.9521 H         1 UNK         0.3133 
    112 H112      -52.1456  -23.4154   16.2877 H         1 UNK         0.0566 
    113 H113      -52.0685  -24.5431   18.5307 H         1 UNK         0.0814 
    114 H114      -53.5782  -23.6832   18.2808 H         1 UNK         0.0814 
    115 H115      -53.5373  -25.4335   18.1304 H         1 UNK         0.0814 
    116 H116      -50.7813  -25.0461   15.7235 H         1 UNK         0.3091 
    117 H117      -50.5882  -28.3963   15.9574 H         1 UNK         0.0702 
    118 H118      -52.2039  -28.8608   14.1302 H         1 UNK         0.0785 
    119 H119      -50.5633  -28.9018   13.5057 H         1 UNK         0.0785 
    120 H120      -51.5892  -27.5041   13.1963 H         1 UNK         0.0785 
    121 H121      -49.4565  -26.5533   13.9978 H         1 UNK         0.2998 
    122 H122      -47.1217  -25.1054   16.2687 H         1 UNK         0.0697 
    123 H123      -46.6664  -26.9870   13.8912 H         1 UNK         0.0825 
    124 H124      -46.0021  -27.2086   15.5042 H         1 UNK         0.0825 
    125 H125      -45.5023  -25.8311   14.5364 H         1 UNK         0.0825 
    126 H126      -47.4675  -24.6197   13.5183 H         1 UNK         0.3029 
    127 H127      -50.2056  -22.2797   13.7719 H         1 UNK         0.0897 
    128 H128      -48.5266  -20.9950   12.4352 H         1 UNK         0.0792 
    129 H129      -48.1033  -21.0291   14.1403 H         1 UNK         0.0792 
    130 H130      -47.2450  -22.0609   13.0087 H         1 UNK         0.0792 
    131 H131      -48.9315  -23.2529   11.4541 H         1 UNK         0.3086 
    132 H132      -51.0264  -26.1125   10.8876 H         1 UNK         0.0583 
    133 H133      -50.7243  -23.3715    9.5443 H         1 UNK         0.1020 
    134 H134      -51.0604  -24.8409    8.6830 H         1 UNK         0.1020 
    135 H135      -54.8342  -25.1049    8.8504 H         1 UNK         0.0694 
    136 H136      -53.4995  -24.8535    7.7533 H         1 UNK         0.0694 
    137 H137      -48.6691  -25.0065    9.6378 H         1 UNK         0.2989 
    138 H138      -46.3145  -27.0060   11.3778 H         1 UNK         0.1055 
    139 H139      -47.1646  -28.5928    9.6609 H         1 UNK         0.0806 
    140 H140      -45.7233  -27.7691    9.0855 H         1 UNK         0.0806 
    141 H141      -47.3125  -27.2844    8.4986 H         1 UNK         0.0806 
    142 H142      -46.1265  -25.1797    9.1464 H         1 UNK         0.3061 
    143 H143      -45.8207  -22.2160   11.0918 H         1 UNK         0.0734 
    144 H144      -43.6267  -22.0354    9.9489 H         1 UNK         0.0832 
    145 H145      -43.5294  -23.2077   11.2519 H         1 UNK         0.0832 
    146 H146      -43.6401  -23.7625    9.5871 H         1 UNK         0.0832 
    147 H147      -45.4973  -22.7106    8.3056 H         1 UNK         0.3156 
    148 H148      -48.7986  -21.8756    7.4071 H         1 UNK         0.0589 
    149 H149      -45.9214  -22.1710    6.3786 H         1 UNK         0.0808 
    150 H150      -47.2718  -21.3975    5.5644 H         1 UNK         0.0808 
    151 H151      -46.6103  -20.6843    7.0230 H         1 UNK         0.0808 
    152 H152      -49.0838  -23.7840    6.3234 H         1 UNK         0.3098 
    153 H153      -48.7580  -26.3569    6.2690 H         1 UNK         0.0720 
    154 H154      -48.5036  -26.3309    3.6861 H         1 UNK         0.0791 
    155 H155      -47.3776  -24.9966    3.8617 H         1 UNK         0.0791 
    156 H156      -49.0600  -24.8036    4.3292 H         1 UNK         0.0791 
    157 H157      -45.9353  -26.6010    6.0357 H         1 UNK         0.3028 
@<TRIPOS>BOND
     1    1    2 1    
     2    1   82 1    
     3    1   83 1    
     4    1   84 1    
     5    2    3 2    
     6    2    4 am   BACKBONE|DICT|INTERRES
     7    4    5 1    
     8    4   85 1    
     9    5    6 1    
    10    5   80 1    
    11    5   86 1    
    12    6    7 1    
    13    6   87 1    
    14    6   88 1    
    15    7    8 1    
    16    8    9 1    
    17    8   89 1    
    18    8   90 1    
    19    9   10 ar   
    20    9   14 ar   
    21   10   11 ar   
    22   10   91 1    
    23   11   12 ar   
    24   11   58 1    
    25   12   13 ar   
    26   12   92 1    
    27   13   14 ar   
    28   13   15 1    
    29   14   93 1    
    30   15   16 1    
    31   15   94 1    
    32   15   95 1    
    33   16   17 1    
    34   17   18 1    
    35   17   96 1    
    36   17   97 1    
    37   18   19 1    
    38   18   22 1    
    39   18   98 1    
    40   19   20 am   BACKBONE|DICT|INTERRES
    41   19   21 2    
    42   20   99 1    
    43   20  100 1    
    44   22   23 am   BACKBONE|DICT|INTERRES
    45   22  101 1    
    46   23   24 2    
    47   23   25 1    
    48   25   26 1    
    49   25   27 1    
    50   25  102 1    
    51   26  103 1    
    52   26  104 1    
    53   26  105 1    
    54   27   28 am   BACKBONE|DICT|INTERRES
    55   27  106 1    
    56   28   29 2    
    57   28   30 1    
    58   30   31 1    
    59   30   32 1    
    60   30  107 1    
    61   31  108 1    
    62   31  109 1    
    63   31  110 1    
    64   32   33 am   BACKBONE|DICT|INTERRES
    65   32  111 1    
    66   33   34 2    
    67   33   35 1    
    68   35   36 1    
    69   35   37 1    
    70   35  112 1    
    71   36  113 1    
    72   36  114 1    
    73   36  115 1    
    74   37   38 am   BACKBONE|DICT|INTERRES
    75   37  116 1    
    76   38   39 2    
    77   38   40 1    
    78   40   41 1    
    79   40   42 1    
    80   40  117 1    
    81   41  118 1    
    82   41  119 1    
    83   41  120 1    
    84   42   43 am   BACKBONE|DICT|INTERRES
    85   42  121 1    
    86   43   44 2    
    87   43   45 1    
    88   45   46 1    
    89   45   47 1    
    90   45  122 1    
    91   46  123 1    
    92   46  124 1    
    93   46  125 1    
    94   47   48 am   BACKBONE|DICT|INTERRES
    95   47  126 1    
    96   48   49 2    
    97   48   50 1    
    98   50   51 1    
    99   50   52 1    
   100   50  127 1    
   101   51  128 1    
   102   51  129 1    
   103   51  130 1    
   104   52   53 am   BACKBONE|DICT|INTERRES
   105   52  131 1    
   106   53   54 2    
   107   53   55 1    
   108   55   56 1    
   109   55   59 1    
   110   55  132 1    
   111   56   57 1    
   112   56  133 1    
   113   56  134 1    
   114   57   58 1    
   115   58  135 1    
   116   58  136 1    
   117   59   60 am   BACKBONE|DICT|INTERRES
   118   59  137 1    
   119   60   61 2    
   120   60   62 1    
   121   62   63 1    
   122   62   64 1    
   123   62  138 1    
   124   63  139 1    
   125   63  140 1    
   126   63  141 1    
   127   64   65 am   BACKBONE|DICT|INTERRES
   128   64  142 1    
   129   65   66 2    
   130   65   67 1    
   131   67   68 1    
   132   67   69 1    
   133   67  143 1    
   134   68  144 1    
   135   68  145 1    
   136   68  146 1    
   137   69   70 am   BACKBONE|DICT|INTERRES
   138   69  147 1    
   139   70   71 2    
   140   70   72 1    
   141   72   73 1    
   142   72   74 1    
   143   72  148 1    
   144   73  149 1    
   145   73  150 1    
   146   73  151 1    
   147   74   75 am   BACKBONE|DICT|INTERRES
   148   74  152 1    
   149   75   76 2    
   150   75   77 1    
   151   77   78 1    
   152   77   79 1    
   153   77  153 1    
   154   78  154 1    
   155   78  155 1    
   156   78  156 1    
   157   79   80 am   BACKBONE|DICT|INTERRES
   158   79  157 1    
   159   80   81 2    
@<TRIPOS>SUBSTRUCTURE
     1 UNK         1 GROUP             0       ****    0 ROOT    
