@<TRIPOS>MOLECULE
3R207
157   159    1
SMALL
USER_CHARGES


@<TRIPOS>ATOM
      1 CA        -46.2627  -31.8745    2.9256 C.3       0 UNK        -0.1975 
      2 C         -46.6798  -30.4204    2.7634 C.2       0 UNK         0.4852 
      3 O         -45.8668  -29.5925    2.3512 O.2       0 UNK        -0.5216 
      4 N         -47.9401  -30.1019    3.0884 N.am      1 UNK        -0.4461 
      5 CA        -48.5191  -28.7540    3.0042 C.3       1 UNK         0.0864 
      6 C6        -50.0668  -28.8014    2.9217 C.3       14 UNK        -0.0898 
      7 S7        -50.8620  -29.6654    4.3214 S.3       14 UNK        -0.2598 
      8 C8        -51.5326  -28.2484    5.2408 C.3       14 UNK         0.0286 
      9 C9        -51.9936  -28.6537    6.6303 C.ar      14 UNK        -0.0844 
     10 C10       -51.0487  -28.9381    7.6193 C.ar      14 UNK        -0.0881 
     11 C11       -51.4434  -29.2780    8.9152 C.ar      14 UNK        -0.0643 
     12 C12       -52.8119  -29.3564    9.2068 C.ar      14 UNK        -0.0930 
     13 C13       -53.7682  -29.0751    8.2261 C.ar      14 UNK        -0.0827 
     14 C14       -53.3545  -28.7232    6.9383 C.ar      14 UNK        -0.1249 
     15 C15       -55.2475  -29.1495    8.5655 C.3       14 UNK         0.0141 
     16 S16       -55.8253  -27.5829    9.2856 S.3       14 UNK        -0.2313 
     17 C17       -57.5033  -28.0483    9.8402 C.3       14 UNK        -0.0915 
     18 CA        -57.6074  -28.3115   11.3674 C.3       13 UNK         0.0968 
     19 C         -56.9691  -29.6748   11.7683 C.2       13 UNK         0.5732 
     20 N         -55.8656  -29.7090   12.5064 N.am      13 UNK        -0.7310 
     21 O         -57.4938  -30.7240   11.4028 O.2       13 UNK        -0.5035 
     22 N         -57.1351  -27.1572   12.1443 N.am      13 UNK        -0.4233 
     23 C         -57.4223  -26.9295   13.4300 C.2       13 UNK         0.4989 
     24 O         -58.2183  -27.5975   14.0936 O.2       13 UNK        -0.4996 
     25 CA        -56.6562  -25.7742   14.0981 C.3       12 UNK         0.0216 
     26 CB        -57.6102  -24.8197   14.8367 C.3       12 UNK        -0.1964 
     27 N         -55.6455  -26.2706   15.0353 N.am      12 UNK        -0.4276 
     28 C         -54.6211  -27.0734   14.7181 C.2       12 UNK         0.5020 
     29 O         -54.3850  -27.4625   13.5724 O.2       12 UNK        -0.5489 
     30 CA        -53.6927  -27.4720   15.8736 C.3       11 UNK         0.0294 
     31 CB        -52.7070  -28.5892   15.4824 C.3       11 UNK        -0.2019 
     32 N         -52.9306  -26.3038   16.3011 N.am      11 UNK        -0.4493 
     33 C         -53.2917  -25.4363   17.2538 C.2       11 UNK         0.4932 
     34 O         -54.3438  -25.5289   17.8891 O.2       11 UNK        -0.5029 
     35 CA        -52.3216  -24.2659   17.5202 C.3       10 UNK         0.0280 
     36 CB        -52.5209  -23.6174   18.9063 C.3       10 UNK        -0.1976 
     37 N         -50.9161  -24.6300   17.2973 N.am      10 UNK        -0.4242 
     38 C         -50.1959  -25.5573   17.9501 C.2       10 UNK         0.5072 
     39 O         -50.6022  -26.1712   18.9379 O.2       10 UNK        -0.5224 
     40 CA        -48.7956  -25.8966   17.3988 C.3       9 UNK         0.0343 
     41 CB        -48.7923  -27.3130   16.7987 C.3       9 UNK        -0.2003 
     42 N         -48.3082  -24.9556   16.3865 N.am      9 UNK        -0.4272 
     43 C         -47.8616  -23.7188   16.6454 C.2       9 UNK         0.4988 
     44 O         -47.7474  -23.2553   17.7805 O.2       9 UNK        -0.5108 
     45 CA        -47.5140  -22.8373   15.4329 C.3       8 UNK         0.0248 
     46 CB        -46.0700  -23.0963   14.9749 C.3       8 UNK        -0.2001 
     47 N         -48.4338  -23.0141   14.3028 N.am      8 UNK        -0.4140 
     48 C         -49.7463  -22.7345   14.3378 C.2       8 UNK         0.5028 
     49 O         -50.3200  -22.2680   15.3220 O.2       8 UNK        -0.5428 
     50 CA        -50.5757  -23.0878   13.0909 C.3       7 UNK         0.0264 
     51 CB        -50.3654  -22.0502   11.9778 C.3       7 UNK        -0.1988 
     52 N         -50.2954  -24.4356   12.5873 N.am      7 UNK        -0.4454 
     53 C         -50.5052  -25.5585   13.2916 C.2       7 UNK         0.5027 
     54 O         -51.0077  -25.5693   14.4147 O.2       7 UNK        -0.5083 
     55 CA        -50.0258  -26.8912   12.6872 C.3       6 UNK         0.0844 
     56 C56       -51.1046  -27.5421   11.7913 C.3       14 UNK        -0.0967 
     57 S57       -50.8575  -29.3469   11.6902 S.3       14 UNK        -0.2604 
     58 C58       -50.3586  -29.5749    9.9515 C.3       14 UNK         0.0134 
     59 N         -48.7352  -26.7448   12.0104 N.am      6 UNK        -0.4116 
     60 C         -47.5856  -26.4735   12.6441 C.2       5 UNK         0.5034 
     61 O         -47.4808  -26.3639   13.8661 O.2       5 UNK        -0.5045 
     62 CA        -46.3582  -26.2243   11.7570 C.3       5 UNK         0.0224 
     63 CB        -45.7738  -27.5475   11.2366 C.3       5 UNK        -0.1978 
     64 N         -46.6707  -25.3350   10.6353 N.am      5 UNK        -0.4737 
     65 C         -46.9543  -24.0311   10.7766 C.2       4 UNK         0.5027 
     66 O         -46.9612  -23.4502   11.8605 O.2       4 UNK        -0.5211 
     67 CA        -47.3226  -23.2416    9.5090 C.3       4 UNK         0.0297 
     68 CB        -46.0598  -22.6487    8.8652 C.3       4 UNK        -0.1993 
     69 N         -48.0520  -24.0286    8.5142 N.am      4 UNK        -0.4486 
     70 C         -49.2324  -24.6327    8.7124 C.2       3 UNK         0.4961 
     71 O         -49.8642  -24.5857    9.7679 O.2       3 UNK        -0.5105 
     72 CA        -49.7706  -25.4757    7.5449 C.3       3 UNK         0.0299 
     73 CB        -50.6236  -24.6045    6.6091 C.3       3 UNK        -0.1972 
     74 N         -48.7174  -26.1497    6.7726 N.am      3 UNK        -0.4305 
     75 C         -47.8225  -27.0136    7.2723 C.2       2 UNK         0.5006 
     76 O         -47.7896  -27.3394    8.4602 O.2       2 UNK        -0.5106 
     77 CA        -46.7940  -27.5976    6.2844 C.3       2 UNK         0.0296 
     78 CB        -45.7732  -28.5187    6.9797 C.3       2 UNK        -0.2002 
     79 N         -47.4160  -28.3343    5.1803 N.am      2 UNK        -0.4032 
     80 C         -48.0196  -27.7941    4.1108 C.2       1 UNK         0.5000 
     81 O         -48.1902  -26.5800    3.9775 O.2       1 UNK        -0.5238 
     82 H82       -47.0785  -32.4939    3.2982 H         1 UNK         0.0889 
     83 H83       -45.4316  -31.9507    3.6262 H         1 UNK         0.0889 
     84 H84       -45.9394  -32.2807    1.9676 H         1 UNK         0.0889 
     85 H85       -48.5711  -30.8205    3.4171 H         1 UNK         0.3028 
     86 H86       -48.1711  -28.3159    2.0659 H         1 UNK         0.0864 
     87 H87       -50.3594  -29.3240    2.0097 H         1 UNK         0.0720 
     88 H88       -50.4794  -27.7958    2.8180 H         1 UNK         0.0720 
     89 H89       -52.3511  -27.8030    4.6729 H         1 UNK         0.0814 
     90 H90       -50.7656  -27.4806    5.3313 H         1 UNK         0.0814 
     91 H91       -49.9967  -28.8915    7.3767 H         1 UNK         0.1469 
     92 H92       -53.1446  -29.6287   10.1988 H         1 UNK         0.1381 
     93 H93       -54.0921  -28.4994    6.1796 H         1 UNK         0.1206 
     94 H94       -55.8336  -29.3770    7.6737 H         1 UNK         0.0813 
     95 H95       -55.4213  -29.9672    9.2661 H         1 UNK         0.0813 
     96 H96       -57.8601  -28.9074    9.2688 H         1 UNK         0.0638 
     97 H97       -58.1708  -27.2278    9.5734 H         1 UNK         0.0638 
     98 H98       -58.6705  -28.4215   11.5898 H         1 UNK         0.0568 
     99 H99       -55.4714  -30.6005   12.7572 H         1 UNK         0.3450 
    100 H100      -55.4029  -28.8516   12.7986 H         1 UNK         0.3450 
    101 H101      -56.4248  -26.5985   11.6939 H         1 UNK         0.2987 
    102 H102      -56.1383  -25.2009   13.3262 H         1 UNK         0.0766 
    103 H103      -58.3732  -24.4315   14.1606 H         1 UNK         0.0798 
    104 H104      -57.0758  -23.9625   15.2469 H         1 UNK         0.0798 
    105 H105      -58.1264  -25.3177   15.6586 H         1 UNK         0.0798 
    106 H106      -55.7459  -25.9960   16.0040 H         1 UNK         0.3198 
    107 H107      -54.3107  -27.8400   16.6956 H         1 UNK         0.0843 
    108 H108      -52.0793  -28.8766   16.3260 H         1 UNK         0.0831 
    109 H109      -52.0505  -28.2843   14.6673 H         1 UNK         0.0831 
    110 H110      -53.2402  -29.4819   15.1531 H         1 UNK         0.0831 
    111 H111      -52.1096  -26.0802   15.7386 H         1 UNK         0.3133 
    112 H112      -52.5531  -23.5097   16.7689 H         1 UNK         0.0566 
    113 H113      -51.8245  -22.7934   19.0618 H         1 UNK         0.0814 
    114 H114      -52.3797  -24.3347   19.7151 H         1 UNK         0.0814 
    115 H115      -53.5285  -23.2120   19.0062 H         1 UNK         0.0814 
    116 H116      -50.4880  -24.1890   16.4916 H         1 UNK         0.3091 
    117 H117      -48.1020  -25.8825   18.2420 H         1 UNK         0.0702 
    118 H118      -47.8000  -27.5927   16.4442 H         1 UNK         0.0785 
    119 H119      -49.4835  -27.3948   15.9595 H         1 UNK         0.0785 
    120 H120      -49.0922  -28.0545   17.5403 H         1 UNK         0.0785 
    121 H121      -48.3012  -25.2849   15.4264 H         1 UNK         0.2998 
    122 H122      -47.5863  -21.7959   15.7534 H         1 UNK         0.0697 
    123 H123      -45.9427  -24.1112   14.5965 H         1 UNK         0.0825 
    124 H124      -45.3673  -22.9628   15.7986 H         1 UNK         0.0825 
    125 H125      -45.7760  -22.4064   14.1837 H         1 UNK         0.0825 
    126 H126      -48.0237  -23.3500   13.4338 H         1 UNK         0.3029 
    127 H127      -51.6291  -23.0628   13.3787 H         1 UNK         0.0897 
    128 H128      -49.3229  -21.9980   11.6668 H         1 UNK         0.0792 
    129 H129      -50.6528  -21.0541   12.3167 H         1 UNK         0.0792 
    130 H130      -50.9677  -22.2809   11.0988 H         1 UNK         0.0792 
    131 H131      -49.9434  -24.5079   11.6345 H         1 UNK         0.3086 
    132 H132      -49.8618  -27.5541   13.5398 H         1 UNK         0.0583 
    133 H133      -52.1037  -27.3878   12.2041 H         1 UNK         0.1020 
    134 H134      -51.1201  -27.0909   10.7972 H         1 UNK         0.1020 
    135 H135      -49.4824  -28.9524    9.7658 H         1 UNK         0.0694 
    136 H136      -50.0357  -30.6082    9.8207 H         1 UNK         0.0694 
    137 H137      -48.7349  -26.7899   11.0012 H         1 UNK         0.2989 
    138 H138      -45.5991  -25.7373   12.3738 H         1 UNK         0.1055 
    139 H139      -45.4813  -28.1938   12.0652 H         1 UNK         0.0806 
    140 H140      -46.4910  -28.1028   10.6315 H         1 UNK         0.0806 
    141 H141      -44.8845  -27.3775   10.6296 H         1 UNK         0.0806 
    142 H142      -46.7529  -25.7609    9.7206 H         1 UNK         0.3061 
    143 H143      -47.9694  -22.4158    9.8090 H         1 UNK         0.0734 
    144 H144      -45.3808  -23.4264    8.5129 H         1 UNK         0.0832 
    145 H145      -46.3073  -22.0078    8.0188 H         1 UNK         0.0832 
    146 H146      -45.5092  -22.0366    9.5813 H         1 UNK         0.0832 
    147 H147      -47.6165  -24.1335    7.6096 H         1 UNK         0.3156 
    148 H148      -50.4131  -26.2456    7.9746 H         1 UNK         0.0589 
    149 H149      -51.1057  -25.1981    5.8335 H         1 UNK         0.0808 
    150 H150      -51.4164  -24.0999    7.1635 H         1 UNK         0.0808 
    151 H151      -50.0275  -23.8338    6.1188 H         1 UNK         0.0808 
    152 H152      -48.6753  -25.9646    5.7738 H         1 UNK         0.3098 
    153 H153      -46.2421  -26.7535    5.8654 H         1 UNK         0.0720 
    154 H154      -46.2533  -29.3919    7.4236 H         1 UNK         0.0791 
    155 H155      -45.2519  -27.9921    7.7806 H         1 UNK         0.0791 
    156 H156      -45.0147  -28.8709    6.2803 H         1 UNK         0.0791 
    157 H157      -47.3538  -29.3409    5.2207 H         1 UNK         0.3028 
@<TRIPOS>BOND
     1    1    2 1    
     2    1   82 1    
     3    1   83 1    
     4    1   84 1    
     5    2    3 2    
     6    2    4 am   BACKBONE|DICT|INTERRES
     7    4    5 1    
     8    4   85 1    
     9    5    6 1    
    10    5   80 1    
    11    5   86 1    
    12    6    7 1    
    13    6   87 1    
    14    6   88 1    
    15    7    8 1    
    16    8    9 1    
    17    8   89 1    
    18    8   90 1    
    19    9   10 ar   
    20    9   14 ar   
    21   10   11 ar   
    22   10   91 1    
    23   11   12 ar   
    24   11   58 1    
    25   12   13 ar   
    26   12   92 1    
    27   13   14 ar   
    28   13   15 1    
    29   14   93 1    
    30   15   16 1    
    31   15   94 1    
    32   15   95 1    
    33   16   17 1    
    34   17   18 1    
    35   17   96 1    
    36   17   97 1    
    37   18   19 1    
    38   18   22 1    
    39   18   98 1    
    40   19   20 am   BACKBONE|DICT|INTERRES
    41   19   21 2    
    42   20   99 1    
    43   20  100 1    
    44   22   23 am   BACKBONE|DICT|INTERRES
    45   22  101 1    
    46   23   24 2    
    47   23   25 1    
    48   25   26 1    
    49   25   27 1    
    50   25  102 1    
    51   26  103 1    
    52   26  104 1    
    53   26  105 1    
    54   27   28 am   BACKBONE|DICT|INTERRES
    55   27  106 1    
    56   28   29 2    
    57   28   30 1    
    58   30   31 1    
    59   30   32 1    
    60   30  107 1    
    61   31  108 1    
    62   31  109 1    
    63   31  110 1    
    64   32   33 am   BACKBONE|DICT|INTERRES
    65   32  111 1    
    66   33   34 2    
    67   33   35 1    
    68   35   36 1    
    69   35   37 1    
    70   35  112 1    
    71   36  113 1    
    72   36  114 1    
    73   36  115 1    
    74   37   38 am   BACKBONE|DICT|INTERRES
    75   37  116 1    
    76   38   39 2    
    77   38   40 1    
    78   40   41 1    
    79   40   42 1    
    80   40  117 1    
    81   41  118 1    
    82   41  119 1    
    83   41  120 1    
    84   42   43 am   BACKBONE|DICT|INTERRES
    85   42  121 1    
    86   43   44 2    
    87   43   45 1    
    88   45   46 1    
    89   45   47 1    
    90   45  122 1    
    91   46  123 1    
    92   46  124 1    
    93   46  125 1    
    94   47   48 am   BACKBONE|DICT|INTERRES
    95   47  126 1    
    96   48   49 2    
    97   48   50 1    
    98   50   51 1    
    99   50   52 1    
   100   50  127 1    
   101   51  128 1    
   102   51  129 1    
   103   51  130 1    
   104   52   53 am   BACKBONE|DICT|INTERRES
   105   52  131 1    
   106   53   54 2    
   107   53   55 1    
   108   55   56 1    
   109   55   59 1    
   110   55  132 1    
   111   56   57 1    
   112   56  133 1    
   113   56  134 1    
   114   57   58 1    
   115   58  135 1    
   116   58  136 1    
   117   59   60 am   BACKBONE|DICT|INTERRES
   118   59  137 1    
   119   60   61 2    
   120   60   62 1    
   121   62   63 1    
   122   62   64 1    
   123   62  138 1    
   124   63  139 1    
   125   63  140 1    
   126   63  141 1    
   127   64   65 am   BACKBONE|DICT|INTERRES
   128   64  142 1    
   129   65   66 2    
   130   65   67 1    
   131   67   68 1    
   132   67   69 1    
   133   67  143 1    
   134   68  144 1    
   135   68  145 1    
   136   68  146 1    
   137   69   70 am   BACKBONE|DICT|INTERRES
   138   69  147 1    
   139   70   71 2    
   140   70   72 1    
   141   72   73 1    
   142   72   74 1    
   143   72  148 1    
   144   73  149 1    
   145   73  150 1    
   146   73  151 1    
   147   74   75 am   BACKBONE|DICT|INTERRES
   148   74  152 1    
   149   75   76 2    
   150   75   77 1    
   151   77   78 1    
   152   77   79 1    
   153   77  153 1    
   154   78  154 1    
   155   78  155 1    
   156   78  156 1    
   157   79   80 am   BACKBONE|DICT|INTERRES
   158   79  157 1    
   159   80   81 2    
@<TRIPOS>SUBSTRUCTURE
     1 UNK         1 GROUP             0       ****    0 ROOT    
