@<TRIPOS>MOLECULE
3R207
157   159    1
SMALL
USER_CHARGES


@<TRIPOS>ATOM
      1 CA        -48.0150  -27.4378    4.3420 C.3       0 UNK        -0.1975 
      2 C         -48.7510  -28.0062    5.5523 C.2       0 UNK         0.4852 
      3 O         -48.6815  -29.2107    5.7869 O.2       0 UNK        -0.5216 
      4 N         -49.4643  -27.1935    6.3426 N.am      1 UNK        -0.4461 
      5 CA        -49.6110  -25.7382    6.2153 C.3       1 UNK         0.0864 
      6 C6        -50.9613  -25.2500    6.7922 C.3       14 UNK        -0.0898 
      7 S7        -52.3916  -25.8972    5.8601 S.3       14 UNK        -0.2598 
      8 C8        -53.7192  -25.8805    7.1235 C.3       14 UNK         0.0286 
      9 C9        -53.4897  -26.7743    8.3454 C.ar      14 UNK        -0.0844 
     10 C10       -52.5777  -27.8352    8.3315 C.ar      14 UNK        -0.0881 
     11 C11       -52.3457  -28.5950    9.4779 C.ar      14 UNK        -0.0643 
     12 C12       -53.0849  -28.3425   10.6351 C.ar      14 UNK        -0.0930 
     13 C13       -54.0235  -27.3077   10.6616 C.ar      14 UNK        -0.0827 
     14 C14       -54.2102  -26.5211    9.5183 C.ar      14 UNK        -0.1249 
     15 C15       -54.8079  -27.0277   11.9387 C.3       14 UNK         0.0141 
     16 S16       -56.6102  -27.0809   11.6840 S.3       14 UNK        -0.2313 
     17 C17       -56.8732  -28.8154   11.1815 C.3       14 UNK        -0.0915 
     18 CA        -57.6986  -29.6117   12.2226 C.3       13 UNK         0.0968 
     19 C         -58.1516  -30.9847   11.6465 C.2       13 UNK         0.5732 
     20 N         -57.7150  -32.1156   12.1897 N.am      13 UNK        -0.7310 
     21 O         -58.9273  -31.0242   10.6943 O.2       13 UNK        -0.5035 
     22 N         -56.9939  -29.7142   13.5096 N.am      13 UNK        -0.4233 
     23 C         -57.5879  -29.8480   14.6981 C.2       13 UNK         0.4989 
     24 O         -58.8087  -29.8001   14.8561 O.2       13 UNK        -0.4996 
     25 CA        -56.6954  -30.0861   15.9322 C.3       12 UNK         0.0216 
     26 CB        -56.6426  -31.5883   16.2738 C.3       12 UNK        -0.1964 
     27 N         -55.3376  -29.5180   15.8902 N.am      12 UNK        -0.4276 
     28 C         -54.3082  -29.8061   15.0836 C.2       12 UNK         0.5020 
     29 O         -54.3964  -30.5393   14.0967 O.2       12 UNK        -0.5489 
     30 CA        -52.9595  -29.1484   15.4410 C.3       11 UNK         0.0294 
     31 CB        -51.7917  -29.7391   14.6335 C.3       11 UNK        -0.2019 
     32 N         -52.9598  -27.6933   15.2694 N.am      11 UNK        -0.4493 
     33 C         -53.5968  -26.8145   16.0554 C.2       11 UNK         0.4932 
     34 O         -54.3301  -27.1396   16.9923 O.2       11 UNK        -0.5029 
     35 CA        -53.3283  -25.3294   15.7558 C.3       10 UNK         0.0280 
     36 CB        -54.0609  -24.3706   16.7173 C.3       10 UNK        -0.1976 
     37 N         -51.8917  -25.0366   15.7177 N.am      10 UNK        -0.4242 
     38 C         -50.9851  -25.2123   16.6938 C.2       10 UNK         0.5072 
     39 O         -51.2572  -25.6041   17.8293 O.2       10 UNK        -0.5224 
     40 CA        -49.5108  -24.9202   16.3486 C.3       9 UNK         0.0343 
     41 CB        -48.7455  -26.2384   16.1486 C.3       9 UNK        -0.2003 
     42 N         -49.3416  -24.0890   15.1546 N.am      9 UNK        -0.4272 
     43 C         -49.6489  -22.7865   15.0773 C.2       9 UNK         0.4988 
     44 O         -50.0140  -22.1067   16.0367 O.2       9 UNK        -0.5108 
     45 CA        -49.5822  -22.1499   13.6796 C.3       8 UNK         0.0248 
     46 CB        -48.1543  -21.6807   13.3552 C.3       8 UNK        -0.2001 
     47 N         -50.0602  -23.0569   12.6305 N.am      8 UNK        -0.4140 
     48 C         -51.3335  -23.4559   12.4917 C.2       8 UNK         0.5028 
     49 O         -52.2510  -23.0900   13.2249 O.2       8 UNK        -0.5428 
     50 CA        -51.6296  -24.4508   11.3600 C.3       7 UNK         0.0264 
     51 CB        -51.7399  -23.7107   10.0180 C.3       7 UNK        -0.1988 
     52 N         -50.6334  -25.5235   11.2770 N.am      7 UNK        -0.4454 
     53 C         -50.4933  -26.4961   12.1929 C.2       7 UNK         0.5027 
     54 O         -51.2697  -26.6598   13.1373 O.2       7 UNK        -0.5083 
     55 CA        -49.2371  -27.3915   12.0939 C.3       6 UNK         0.0844 
     56 C56       -49.5182  -28.8016   11.5179 C.3       14 UNK        -0.0967 
     57 S57       -49.6251  -28.8998    9.6972 S.3       14 UNK        -0.2604 
     58 C58       -51.2634  -29.6580    9.4574 C.3       14 UNK         0.0134 
     59 N         -48.1060  -26.7301   11.4367 N.am      6 UNK        -0.4116 
     60 C         -47.4362  -25.6822   11.9352 C.2       5 UNK         0.5034 
     61 O         -47.7236  -25.1518   13.0088 O.2       5 UNK        -0.5045 
     62 CA        -46.3058  -25.0829   11.0790 C.3       5 UNK         0.0224 
     63 CB        -45.0844  -24.6637   11.9231 C.3       5 UNK        -0.1978 
     64 N         -45.9189  -25.9175    9.9347 N.am      5 UNK        -0.4737 
     65 C         -45.2620  -27.0873    9.9320 C.2       4 UNK         0.5027 
     66 O         -44.8556  -27.6563   10.9443 O.2       4 UNK        -0.5211 
     67 CA        -45.0391  -27.7459    8.5600 C.3       4 UNK         0.0297 
     68 CB        -46.1424  -28.7768    8.2781 C.3       4 UNK        -0.1993 
     69 N         -45.0206  -26.7595    7.4766 N.am      4 UNK        -0.4486 
     70 C         -43.9191  -26.1331    7.0395 C.2       3 UNK         0.4961 
     71 O         -42.7831  -26.3763    7.4475 O.2       3 UNK        -0.5105 
     72 CA        -44.1124  -25.0466    5.9643 C.3       3 UNK         0.0299 
     73 CB        -44.0076  -25.6594    4.5581 C.3       3 UNK        -0.1972 
     74 N         -45.3828  -24.3253    6.0878 N.am      3 UNK        -0.4305 
     75 C         -45.6956  -23.4981    7.0966 C.2       2 UNK         0.5006 
     76 O         -44.9216  -23.2024    8.0065 O.2       2 UNK        -0.5106 
     77 CA        -47.1249  -22.9243    7.1163 C.3       2 UNK         0.0296 
     78 CB        -47.1597  -21.5483    6.4318 C.3       2 UNK        -0.2002 
     79 N         -48.1446  -23.7941    6.5139 N.am      2 UNK        -0.4032 
     80 C         -48.4457  -25.0315    6.9334 C.2       1 UNK         0.5000 
     81 O         -47.8463  -25.6036    7.8483 O.2       1 UNK        -0.5238 
     82 H82       -48.7234  -27.0822    3.5943 H         1 UNK         0.0889 
     83 H83       -47.3984  -28.2064    3.8760 H         1 UNK         0.0889 
     84 H84       -47.3577  -26.6180    4.6258 H         1 UNK         0.0889 
     85 H85       -49.8756  -27.5891    7.1752 H         1 UNK         0.3028 
     86 H86       -49.5792  -25.4589    5.1608 H         1 UNK         0.0864 
     87 H87       -51.0287  -24.1603    6.7793 H         1 UNK         0.0720 
     88 H88       -51.0377  -25.5533    7.8360 H         1 UNK         0.0720 
     89 H89       -54.6497  -26.1890    6.6457 H         1 UNK         0.0814 
     90 H90       -53.8681  -24.8492    7.4468 H         1 UNK         0.0814 
     91 H91       -52.0147  -28.0607    7.4382 H         1 UNK         0.1469 
     92 H92       -52.9155  -28.9382   11.5205 H         1 UNK         0.1381 
     93 H93       -54.9234  -25.7085    9.5445 H         1 UNK         0.1206 
     94 H94       -54.5367  -26.0416   12.3158 H         1 UNK         0.0813 
     95 H95       -54.5436  -27.7381   12.7230 H         1 UNK         0.0813 
     96 H96       -55.9168  -29.3082   10.9999 H         1 UNK         0.0638 
     97 H97       -57.3868  -28.7898   10.2187 H         1 UNK         0.0638 
     98 H98       -58.6217  -29.0537   12.3909 H         1 UNK         0.0568 
     99 H99       -58.0227  -32.9964   11.8090 H         1 UNK         0.3450 
    100 H100      -57.0695  -32.0957   12.9624 H         1 UNK         0.3450 
    101 H101      -55.9878  -29.8576   13.4737 H         1 UNK         0.2987 
    102 H102      -57.1919  -29.5801   16.7618 H         1 UNK         0.0766 
    103 H103      -56.1156  -31.7627   17.2119 H         1 UNK         0.0798 
    104 H104      -56.1414  -32.1656   15.4962 H         1 UNK         0.0798 
    105 H105      -57.6466  -32.0000   16.3869 H         1 UNK         0.0798 
    106 H106      -55.1535  -28.7921   16.5808 H         1 UNK         0.3198 
    107 H107      -52.7679  -29.3623   16.4949 H         1 UNK         0.0843 
    108 H108      -51.9396  -29.5897   13.5659 H         1 UNK         0.0831 
    109 H109      -51.7038  -30.8131   14.8023 H         1 UNK         0.0831 
    110 H110      -50.8400  -29.2856   14.9116 H         1 UNK         0.0831 
    111 H111      -52.3773  -27.3274   14.5180 H         1 UNK         0.3133 
    112 H112      -53.7067  -25.1423   14.7497 H         1 UNK         0.0566 
    113 H113      -53.8717  -23.3295   16.4554 H         1 UNK         0.0814 
    114 H114      -55.1396  -24.5255   16.6745 H         1 UNK         0.0814 
    115 H115      -53.7525  -24.5177   17.7528 H         1 UNK         0.0814 
    116 H116      -51.5494  -24.7169   14.8216 H         1 UNK         0.3091 
    117 H117      -49.0703  -24.3908   17.1960 H         1 UNK         0.0702 
    118 H118      -47.6981  -26.0597   15.9040 H         1 UNK         0.0785 
    119 H119      -49.1815  -26.8358   15.3481 H         1 UNK         0.0785 
    120 H120      -48.7693  -26.8443   17.0553 H         1 UNK         0.0785 
    121 H121      -48.9529  -24.5426   14.3314 H         1 UNK         0.2998 
    122 H122      -50.2334  -21.2730   13.6844 H         1 UNK         0.0697 
    123 H123      -47.4457  -22.5090   13.3382 H         1 UNK         0.0825 
    124 H124      -47.8014  -20.9693   14.1031 H         1 UNK         0.0825 
    125 H125      -48.1099  -21.1798   12.3880 H         1 UNK         0.0825 
    126 H126      -49.3635  -23.4346   12.0070 H         1 UNK         0.3029 
    127 H127      -52.5993  -24.9021   11.5744 H         1 UNK         0.0897 
    128 H128      -52.3501  -22.8112   10.1136 H         1 UNK         0.0792 
    129 H129      -52.2277  -24.3337    9.2730 H         1 UNK         0.0792 
    130 H130      -50.7670  -23.4060    9.6311 H         1 UNK         0.0792 
    131 H131      -49.9728  -25.4874   10.5153 H         1 UNK         0.3086 
    132 H132      -48.9275  -27.5531   13.1280 H         1 UNK         0.0583 
    133 H133      -48.7098  -29.4695   11.8197 H         1 UNK         0.1020 
    134 H134      -50.4136  -29.2270   11.9675 H         1 UNK         0.1020 
    135 H135      -51.2742  -30.1715    8.4947 H         1 UNK         0.0694 
    136 H136      -51.4464  -30.4244   10.2120 H         1 UNK         0.0694 
    137 H137      -47.8320  -27.0985   10.5371 H         1 UNK         0.2989 
    138 H138      -46.7222  -24.1725   10.6450 H         1 UNK         0.1055 
    139 H139      -45.3597  -23.9126   12.6644 H         1 UNK         0.0806 
    140 H140      -44.3032  -24.2293   11.2990 H         1 UNK         0.0806 
    141 H141      -44.6543  -25.5062   12.4651 H         1 UNK         0.0806 
    142 H142      -46.2964  -25.6081    9.0443 H         1 UNK         0.3061 
    143 H143      -44.0835  -28.2736    8.5958 H         1 UNK         0.0734 
    144 H144      -45.9576  -29.3124    7.3469 H         1 UNK         0.0832 
    145 H145      -46.1998  -29.5206    9.0741 H         1 UNK         0.0832 
    146 H146      -47.1224  -28.3061    8.2007 H         1 UNK         0.0832 
    147 H147      -45.9206  -26.4669    7.1209 H         1 UNK         0.3156 
    148 H148      -43.3036  -24.3217    6.0793 H         1 UNK         0.0589 
    149 H149      -44.7937  -26.3924    4.3735 H         1 UNK         0.0808 
    150 H150      -44.0712  -24.8940    3.7844 H         1 UNK         0.0808 
    151 H151      -43.0521  -26.1694    4.4272 H         1 UNK         0.0808 
    152 H152      -46.0673  -24.4748    5.3619 H         1 UNK         0.3098 
    153 H153      -47.3977  -22.7867    8.1649 H         1 UNK         0.0720 
    154 H154      -48.1372  -21.0768    6.5359 H         1 UNK         0.0791 
    155 H155      -46.9314  -21.6195    5.3676 H         1 UNK         0.0791 
    156 H156      -46.4286  -20.8718    6.8771 H         1 UNK         0.0791 
    157 H157      -48.6832  -23.3909    5.7599 H         1 UNK         0.3028 
@<TRIPOS>BOND
     1    1    2 1    
     2    1   82 1    
     3    1   83 1    
     4    1   84 1    
     5    2    3 2    
     6    2    4 am   BACKBONE|DICT|INTERRES
     7    4    5 1    
     8    4   85 1    
     9    5    6 1    
    10    5   80 1    
    11    5   86 1    
    12    6    7 1    
    13    6   87 1    
    14    6   88 1    
    15    7    8 1    
    16    8    9 1    
    17    8   89 1    
    18    8   90 1    
    19    9   10 ar   
    20    9   14 ar   
    21   10   11 ar   
    22   10   91 1    
    23   11   12 ar   
    24   11   58 1    
    25   12   13 ar   
    26   12   92 1    
    27   13   14 ar   
    28   13   15 1    
    29   14   93 1    
    30   15   16 1    
    31   15   94 1    
    32   15   95 1    
    33   16   17 1    
    34   17   18 1    
    35   17   96 1    
    36   17   97 1    
    37   18   19 1    
    38   18   22 1    
    39   18   98 1    
    40   19   20 am   BACKBONE|DICT|INTERRES
    41   19   21 2    
    42   20   99 1    
    43   20  100 1    
    44   22   23 am   BACKBONE|DICT|INTERRES
    45   22  101 1    
    46   23   24 2    
    47   23   25 1    
    48   25   26 1    
    49   25   27 1    
    50   25  102 1    
    51   26  103 1    
    52   26  104 1    
    53   26  105 1    
    54   27   28 am   BACKBONE|DICT|INTERRES
    55   27  106 1    
    56   28   29 2    
    57   28   30 1    
    58   30   31 1    
    59   30   32 1    
    60   30  107 1    
    61   31  108 1    
    62   31  109 1    
    63   31  110 1    
    64   32   33 am   BACKBONE|DICT|INTERRES
    65   32  111 1    
    66   33   34 2    
    67   33   35 1    
    68   35   36 1    
    69   35   37 1    
    70   35  112 1    
    71   36  113 1    
    72   36  114 1    
    73   36  115 1    
    74   37   38 am   BACKBONE|DICT|INTERRES
    75   37  116 1    
    76   38   39 2    
    77   38   40 1    
    78   40   41 1    
    79   40   42 1    
    80   40  117 1    
    81   41  118 1    
    82   41  119 1    
    83   41  120 1    
    84   42   43 am   BACKBONE|DICT|INTERRES
    85   42  121 1    
    86   43   44 2    
    87   43   45 1    
    88   45   46 1    
    89   45   47 1    
    90   45  122 1    
    91   46  123 1    
    92   46  124 1    
    93   46  125 1    
    94   47   48 am   BACKBONE|DICT|INTERRES
    95   47  126 1    
    96   48   49 2    
    97   48   50 1    
    98   50   51 1    
    99   50   52 1    
   100   50  127 1    
   101   51  128 1    
   102   51  129 1    
   103   51  130 1    
   104   52   53 am   BACKBONE|DICT|INTERRES
   105   52  131 1    
   106   53   54 2    
   107   53   55 1    
   108   55   56 1    
   109   55   59 1    
   110   55  132 1    
   111   56   57 1    
   112   56  133 1    
   113   56  134 1    
   114   57   58 1    
   115   58  135 1    
   116   58  136 1    
   117   59   60 am   BACKBONE|DICT|INTERRES
   118   59  137 1    
   119   60   61 2    
   120   60   62 1    
   121   62   63 1    
   122   62   64 1    
   123   62  138 1    
   124   63  139 1    
   125   63  140 1    
   126   63  141 1    
   127   64   65 am   BACKBONE|DICT|INTERRES
   128   64  142 1    
   129   65   66 2    
   130   65   67 1    
   131   67   68 1    
   132   67   69 1    
   133   67  143 1    
   134   68  144 1    
   135   68  145 1    
   136   68  146 1    
   137   69   70 am   BACKBONE|DICT|INTERRES
   138   69  147 1    
   139   70   71 2    
   140   70   72 1    
   141   72   73 1    
   142   72   74 1    
   143   72  148 1    
   144   73  149 1    
   145   73  150 1    
   146   73  151 1    
   147   74   75 am   BACKBONE|DICT|INTERRES
   148   74  152 1    
   149   75   76 2    
   150   75   77 1    
   151   77   78 1    
   152   77   79 1    
   153   77  153 1    
   154   78  154 1    
   155   78  155 1    
   156   78  156 1    
   157   79   80 am   BACKBONE|DICT|INTERRES
   158   79  157 1    
   159   80   81 2    
@<TRIPOS>SUBSTRUCTURE
     1 UNK         1 GROUP             0       ****    0 ROOT    
