@<TRIPOS>MOLECULE
3R207
157   159    1
SMALL
USER_CHARGES


@<TRIPOS>ATOM
      1 CA        -44.7505  -30.6903    4.0976 C.3       0 UNK        -0.1975 
      2 C         -46.1991  -30.2349    4.1949 C.2       0 UNK         0.4852 
      3 O         -47.1089  -31.0577    4.0852 O.2       0 UNK        -0.5216 
      4 N         -46.4178  -28.9323    4.3970 N.am      1 UNK        -0.4461 
      5 CA        -47.7231  -28.2850    4.4926 C.3       1 UNK         0.0864 
      6 C6        -48.4136  -28.5484    5.8577 C.3       14 UNK        -0.0898 
      7 S7        -50.2121  -28.2520    5.7789 S.3       14 UNK        -0.2598 
      8 C8        -50.8958  -29.7127    6.6208 C.3       14 UNK         0.0286 
      9 C9        -51.0416  -29.4939    8.1205 C.ar      14 UNK        -0.0844 
     10 C10       -50.2130  -30.1607    9.0288 C.ar      14 UNK        -0.0881 
     11 C11       -50.4202  -30.0290   10.4071 C.ar      14 UNK        -0.0643 
     12 C12       -51.4630  -29.2180   10.8712 C.ar      14 UNK        -0.0930 
     13 C13       -52.2632  -28.5073    9.9737 C.ar      14 UNK        -0.0827 
     14 C14       -52.0511  -28.6553    8.6009 C.ar      14 UNK        -0.1249 
     15 C15       -53.3494  -27.5675   10.4746 C.3       14 UNK         0.0141 
     16 S16       -55.0027  -28.3096   10.3379 S.3       14 UNK        -0.2313 
     17 C17       -55.1682  -29.2113   11.9164 C.3       14 UNK        -0.0915 
     18 CA        -56.3296  -28.6345   12.7741 C.3       13 UNK         0.0968 
     19 C         -56.7545  -29.5762   13.9388 C.2       13 UNK         0.5732 
     20 N         -57.0955  -29.0691   15.1171 N.am      13 UNK        -0.7310 
     21 O         -56.7978  -30.7924   13.7698 O.2       13 UNK        -0.5035 
     22 N         -56.0401  -27.2613   13.2203 N.am      13 UNK        -0.4233 
     23 C         -56.8871  -26.2298   13.1350 C.2       13 UNK         0.4989 
     24 O         -58.0046  -26.2960   12.6189 O.2       13 UNK        -0.4996 
     25 CA        -56.3910  -24.9000   13.7381 C.3       12 UNK         0.0216 
     26 CB        -57.5042  -23.8354   13.8385 C.3       12 UNK        -0.1964 
     27 N         -55.7164  -25.0541   15.0356 N.am      12 UNK        -0.4276 
     28 C         -56.2154  -25.5985   16.1552 C.2       12 UNK         0.5020 
     29 O         -57.3119  -26.1566   16.2284 O.2       12 UNK        -0.5489 
     30 CA        -55.2915  -25.5245   17.3815 C.3       11 UNK         0.0294 
     31 CB        -56.0017  -25.8510   18.7136 C.3       11 UNK        -0.2019 
     32 N         -54.0954  -26.3458   17.1712 N.am      11 UNK        -0.4493 
     33 C         -54.0148  -27.6843   17.1186 C.2       11 UNK         0.4932 
     34 O         -54.9487  -28.4476   17.3579 O.2       11 UNK        -0.5029 
     35 CA        -52.6614  -28.2904   16.7095 C.3       10 UNK         0.0280 
     36 CB        -52.7043  -28.7405   15.2386 C.3       10 UNK        -0.1976 
     37 N         -51.5248  -27.3868   16.8996 N.am      10 UNK        -0.4242 
     38 C         -51.0030  -27.0342   18.0831 C.2       10 UNK         0.5072 
     39 O         -51.4289  -27.4294   19.1688 O.2       10 UNK        -0.5224 
     40 CA        -49.8048  -26.0743   18.0458 C.3       9 UNK         0.0343 
     41 CB        -48.5085  -26.8437   17.7414 C.3       9 UNK        -0.2003 
     42 N         -49.9923  -25.0269   17.0403 N.am      9 UNK        -0.4272 
     43 C         -50.5082  -23.8150   17.2855 C.2       9 UNK         0.4988 
     44 O         -50.8549  -23.4302   18.4027 O.2       9 UNK        -0.5108 
     45 CA        -50.6615  -22.8603   16.0860 C.3       8 UNK         0.0248 
     46 CB        -49.4101  -21.9793   15.9400 C.3       8 UNK        -0.2001 
     47 N         -50.9221  -23.5457   14.8169 N.am      8 UNK        -0.4140 
     48 C         -52.0591  -24.1916   14.5286 C.2       8 UNK         0.5028 
     49 O         -53.0245  -24.2615   15.2902 O.2       8 UNK        -0.5428 
     50 CA        -52.1378  -24.9159   13.1749 C.3       7 UNK         0.0264 
     51 CB        -52.6625  -23.9613   12.0906 C.3       7 UNK        -0.1988 
     52 N         -50.9002  -25.5498   12.7009 N.am      7 UNK        -0.4454 
     53 C         -50.0882  -26.3675   13.3898 C.2       7 UNK         0.5027 
     54 O         -50.2051  -26.5690   14.5983 O.2       7 UNK        -0.5083 
     55 CA        -48.9961  -27.1404   12.6150 C.3       6 UNK         0.0844 
     56 C56       -48.9396  -28.6189   13.1060 C.3       14 UNK        -0.0967 
     57 S57       -48.1194  -29.7939   11.9686 S.3       14 UNK        -0.2604 
     58 C58       -49.5362  -30.7887   11.3895 C.3       14 UNK         0.0134 
     59 N         -49.1345  -27.0269   11.1581 N.am      6 UNK        -0.4116 
     60 C         -48.7144  -25.9969   10.4173 C.2       5 UNK         0.5034 
     61 O         -48.2955  -24.9368   10.8868 O.2       5 UNK        -0.5045 
     62 CA        -48.8095  -26.1748    8.8938 C.3       5 UNK         0.0224 
     63 CB        -50.0408  -25.4368    8.3464 C.3       5 UNK        -0.1978 
     64 N         -47.6015  -25.7018    8.2069 N.am      5 UNK        -0.4737 
     65 C         -46.3705  -26.2043    8.3997 C.2       4 UNK         0.5027 
     66 O         -46.1460  -27.1658    9.1356 O.2       4 UNK        -0.5211 
     67 CA        -45.1880  -25.5670    7.6432 C.3       4 UNK         0.0297 
     68 CB        -44.3082  -26.6429    6.9807 C.3       4 UNK        -0.1993 
     69 N         -45.6088  -24.6021    6.6248 N.am      4 UNK        -0.4486 
     70 C         -45.7628  -23.2865    6.8340 C.2       3 UNK         0.4961 
     71 O         -45.5440  -22.7387    7.9145 O.2       3 UNK        -0.5105 
     72 CA        -46.2472  -22.4256    5.6501 C.3       3 UNK         0.0299 
     73 CB        -45.0652  -21.6760    5.0143 C.3       3 UNK        -0.1972 
     74 N         -46.9492  -23.1817    4.6095 N.am      3 UNK        -0.4305 
     75 C         -48.1244  -23.8042    4.7718 C.2       2 UNK         0.5006 
     76 O         -48.7693  -23.7762    5.8198 O.2       2 UNK        -0.5106 
     77 CA        -48.6547  -24.6357    3.5880 C.3       2 UNK         0.0296 
     78 CB        -47.9682  -24.3247    2.2375 C.3       2 UNK        -0.2002 
     79 N         -48.5949  -26.0739    3.8758 N.am      2 UNK        -0.4032 
     80 C         -47.5099  -26.7837    4.2194 C.2       1 UNK         0.5000 
     81 O         -46.3774  -26.2996    4.3320 O.2       1 UNK        -0.5238 
     82 H82       -44.5646  -31.1457    3.1253 H         1 UNK         0.0889 
     83 H83       -44.5380  -31.4312    4.8679 H         1 UNK         0.0889 
     84 H84       -44.0536  -29.8617    4.2234 H         1 UNK         0.0889 
     85 H85       -45.6489  -28.2724    4.4237 H         1 UNK         0.3028 
     86 H86       -48.3432  -28.6832    3.6860 H         1 UNK         0.0864 
     87 H87       -48.2494  -29.5811    6.1663 H         1 UNK         0.0720 
     88 H88       -47.9737  -27.9398    6.6453 H         1 UNK         0.0720 
     89 H89       -50.2940  -30.5965    6.4044 H         1 UNK         0.0814 
     90 H90       -51.8821  -29.9180    6.2022 H         1 UNK         0.0814 
     91 H91       -49.4240  -30.8044    8.6639 H         1 UNK         0.1469 
     92 H92       -51.6502  -29.1283   11.9312 H         1 UNK         0.1381 
     93 H93       -52.6848  -28.1268    7.9015 H         1 UNK         0.1206 
     94 H94       -53.3310  -26.6529    9.8805 H         1 UNK         0.0813 
     95 H95       -53.1610  -27.2636   11.5039 H         1 UNK         0.0813 
     96 H96       -54.2285  -29.1955   12.4699 H         1 UNK         0.0638 
     97 H97       -55.3521  -30.2562   11.6609 H         1 UNK         0.0638 
     98 H98       -57.2087  -28.6171   12.1277 H         1 UNK         0.0568 
     99 H99       -57.0941  -28.0715   15.2896 H         1 UNK         0.3450 
    100 H100      -57.3522  -29.6968   15.8615 H         1 UNK         0.3450 
    101 H101      -55.1677  -27.1287   13.7060 H         1 UNK         0.2987 
    102 H102      -55.6399  -24.5213   13.0445 H         1 UNK         0.0766 
    103 H103      -57.1177  -22.8931   14.2268 H         1 UNK         0.0798 
    104 H104      -58.3148  -24.1601   14.4919 H         1 UNK         0.0798 
    105 H105      -57.9380  -23.6265   12.8598 H         1 UNK         0.0798 
    106 H106      -54.7735  -24.6666   15.0961 H         1 UNK         0.3198 
    107 H107      -54.9436  -24.4921   17.4507 H         1 UNK         0.0843 
    108 H108      -56.4483  -26.8454   18.7134 H         1 UNK         0.0831 
    109 H109      -56.8075  -25.1409   18.9025 H         1 UNK         0.0831 
    110 H110      -55.3119  -25.7926   19.5554 H         1 UNK         0.0831 
    111 H111      -53.2702  -25.8235   16.9035 H         1 UNK         0.3133 
    112 H112      -52.4984  -29.1734   17.3310 H         1 UNK         0.0566 
    113 H113      -51.7913  -29.2671   14.9616 H         1 UNK         0.0814 
    114 H114      -53.5357  -29.4249   15.0628 H         1 UNK         0.0814 
    115 H115      -52.8245  -27.8961   14.5601 H         1 UNK         0.0814 
    116 H116      -51.0717  -27.0439   16.0537 H         1 UNK         0.3091 
    117 H117      -49.7032  -25.6238   19.0357 H         1 UNK         0.0702 
    118 H118      -47.6423  -26.1824   17.7660 H         1 UNK         0.0785 
    119 H119      -48.5376  -27.3200   16.7604 H         1 UNK         0.0785 
    120 H120      -48.3381  -27.6280   18.4803 H         1 UNK         0.0785 
    121 H121      -49.7946  -25.2861   16.0803 H         1 UNK         0.2998 
    122 H122      -51.5129  -22.2087   16.2950 H         1 UNK         0.0697 
    123 H123      -48.5230  -22.5706   15.7091 H         1 UNK         0.0825 
    124 H124      -49.2068  -21.4347   16.8633 H         1 UNK         0.0825 
    125 H125      -49.5358  -21.2380   15.1507 H         1 UNK         0.0825 
    126 H126      -50.1821  -23.5451   14.1297 H         1 UNK         0.3029 
    127 H127      -52.8698  -25.7145   13.3015 H         1 UNK         0.0897 
    128 H128      -51.9288  -23.1931   11.8429 H         1 UNK         0.0792 
    129 H129      -53.5674  -23.4477   12.4177 H         1 UNK         0.0792 
    130 H130      -52.9101  -24.4947   11.1731 H         1 UNK         0.0792 
    131 H131      -50.6827  -25.4170   11.7244 H         1 UNK         0.3086 
    132 H132      -48.0450  -26.6770   12.8856 H         1 UNK         0.0583 
    133 H133      -48.4041  -28.6567   14.0566 H         1 UNK         0.1020 
    134 H134      -49.9321  -29.0028   13.3409 H         1 UNK         0.1020 
    135 H135      -49.1511  -31.6927   10.9150 H         1 UNK         0.0694 
    136 H136      -50.1239  -31.1293   12.2435 H         1 UNK         0.0694 
    137 H137      -49.4734  -27.8596   10.6941 H         1 UNK         0.2989 
    138 H138      -48.9218  -27.2390    8.6757 H         1 UNK         0.1055 
    139 H139      -50.9542  -25.7804    8.8331 H         1 UNK         0.0806 
    140 H140      -50.1637  -25.6114    7.2777 H         1 UNK         0.0806 
    141 H141      -49.9687  -24.3596    8.5023 H         1 UNK         0.0806 
    142 H142      -47.7131  -24.9099    7.5867 H         1 UNK         0.3061 
    143 H143      -44.5751  -25.0573    8.3895 H         1 UNK         0.0734 
    144 H144      -44.8839  -27.2770    6.3077 H         1 UNK         0.0832 
    145 H145      -43.4926  -26.1976    6.4109 H         1 UNK         0.0832 
    146 H146      -43.8581  -27.2950    7.7302 H         1 UNK         0.0832 
    147 H147      -45.8366  -24.9887    5.7120 H         1 UNK         0.3156 
    148 H148      -46.9441  -21.6863    6.0505 H         1 UNK         0.0589 
    149 H149      -44.3387  -22.3631    4.5783 H         1 UNK         0.0808 
    150 H150      -45.3999  -20.9966    4.2301 H         1 UNK         0.0808 
    151 H151      -44.5390  -21.0748    5.7573 H         1 UNK         0.0808 
    152 H152      -46.4749  -23.2871    3.7242 H         1 UNK         0.3098 
    153 H153      -49.7108  -24.3806    3.4877 H         1 UNK         0.0720 
    154 H154      -48.4563  -24.8606    1.4233 H         1 UNK         0.0791 
    155 H155      -46.9155  -24.6094    2.2273 H         1 UNK         0.0791 
    156 H156      -48.0302  -23.2621    1.9982 H         1 UNK         0.0791 
    157 H157      -49.4862  -26.5520    3.8826 H         1 UNK         0.3028 
@<TRIPOS>BOND
     1    1    2 1    
     2    1   82 1    
     3    1   83 1    
     4    1   84 1    
     5    2    3 2    
     6    2    4 am   BACKBONE|DICT|INTERRES
     7    4    5 1    
     8    4   85 1    
     9    5    6 1    
    10    5   80 1    
    11    5   86 1    
    12    6    7 1    
    13    6   87 1    
    14    6   88 1    
    15    7    8 1    
    16    8    9 1    
    17    8   89 1    
    18    8   90 1    
    19    9   10 ar   
    20    9   14 ar   
    21   10   11 ar   
    22   10   91 1    
    23   11   12 ar   
    24   11   58 1    
    25   12   13 ar   
    26   12   92 1    
    27   13   14 ar   
    28   13   15 1    
    29   14   93 1    
    30   15   16 1    
    31   15   94 1    
    32   15   95 1    
    33   16   17 1    
    34   17   18 1    
    35   17   96 1    
    36   17   97 1    
    37   18   19 1    
    38   18   22 1    
    39   18   98 1    
    40   19   20 am   BACKBONE|DICT|INTERRES
    41   19   21 2    
    42   20   99 1    
    43   20  100 1    
    44   22   23 am   BACKBONE|DICT|INTERRES
    45   22  101 1    
    46   23   24 2    
    47   23   25 1    
    48   25   26 1    
    49   25   27 1    
    50   25  102 1    
    51   26  103 1    
    52   26  104 1    
    53   26  105 1    
    54   27   28 am   BACKBONE|DICT|INTERRES
    55   27  106 1    
    56   28   29 2    
    57   28   30 1    
    58   30   31 1    
    59   30   32 1    
    60   30  107 1    
    61   31  108 1    
    62   31  109 1    
    63   31  110 1    
    64   32   33 am   BACKBONE|DICT|INTERRES
    65   32  111 1    
    66   33   34 2    
    67   33   35 1    
    68   35   36 1    
    69   35   37 1    
    70   35  112 1    
    71   36  113 1    
    72   36  114 1    
    73   36  115 1    
    74   37   38 am   BACKBONE|DICT|INTERRES
    75   37  116 1    
    76   38   39 2    
    77   38   40 1    
    78   40   41 1    
    79   40   42 1    
    80   40  117 1    
    81   41  118 1    
    82   41  119 1    
    83   41  120 1    
    84   42   43 am   BACKBONE|DICT|INTERRES
    85   42  121 1    
    86   43   44 2    
    87   43   45 1    
    88   45   46 1    
    89   45   47 1    
    90   45  122 1    
    91   46  123 1    
    92   46  124 1    
    93   46  125 1    
    94   47   48 am   BACKBONE|DICT|INTERRES
    95   47  126 1    
    96   48   49 2    
    97   48   50 1    
    98   50   51 1    
    99   50   52 1    
   100   50  127 1    
   101   51  128 1    
   102   51  129 1    
   103   51  130 1    
   104   52   53 am   BACKBONE|DICT|INTERRES
   105   52  131 1    
   106   53   54 2    
   107   53   55 1    
   108   55   56 1    
   109   55   59 1    
   110   55  132 1    
   111   56   57 1    
   112   56  133 1    
   113   56  134 1    
   114   57   58 1    
   115   58  135 1    
   116   58  136 1    
   117   59   60 am   BACKBONE|DICT|INTERRES
   118   59  137 1    
   119   60   61 2    
   120   60   62 1    
   121   62   63 1    
   122   62   64 1    
   123   62  138 1    
   124   63  139 1    
   125   63  140 1    
   126   63  141 1    
   127   64   65 am   BACKBONE|DICT|INTERRES
   128   64  142 1    
   129   65   66 2    
   130   65   67 1    
   131   67   68 1    
   132   67   69 1    
   133   67  143 1    
   134   68  144 1    
   135   68  145 1    
   136   68  146 1    
   137   69   70 am   BACKBONE|DICT|INTERRES
   138   69  147 1    
   139   70   71 2    
   140   70   72 1    
   141   72   73 1    
   142   72   74 1    
   143   72  148 1    
   144   73  149 1    
   145   73  150 1    
   146   73  151 1    
   147   74   75 am   BACKBONE|DICT|INTERRES
   148   74  152 1    
   149   75   76 2    
   150   75   77 1    
   151   77   78 1    
   152   77   79 1    
   153   77  153 1    
   154   78  154 1    
   155   78  155 1    
   156   78  156 1    
   157   79   80 am   BACKBONE|DICT|INTERRES
   158   79  157 1    
   159   80   81 2    
@<TRIPOS>SUBSTRUCTURE
     1 UNK         1 GROUP             0       ****    0 ROOT    
