@<TRIPOS>MOLECULE
3R207
157   159    1
SMALL
USER_CHARGES


@<TRIPOS>ATOM
      1 CA        -52.4939  -28.7848    2.7819 C.3       0 UNK        -0.1975 
      2 C         -51.0006  -29.1006    2.8279 C.2       0 UNK         0.4852 
      3 O         -50.2670  -28.6680    1.9410 O.2       0 UNK        -0.5216 
      4 N         -50.4989  -29.8489    3.8229 N.am      1 UNK        -0.4461 
      5 CA        -51.2270  -30.4127    4.9704 C.3       1 UNK         0.0864 
      6 C6        -50.4204  -31.5698    5.6204 C.3       14 UNK        -0.0898 
      7 S7        -51.4982  -32.9070    6.2350 S.3       14 UNK        -0.2598 
      8 C8        -50.7391  -33.3082    7.8416 C.3       14 UNK         0.0286 
      9 C9        -50.9685  -32.2202    8.8812 C.ar      14 UNK        -0.0844 
     10 C10       -49.8998  -31.4513    9.3516 C.ar      14 UNK        -0.0881 
     11 C11       -50.1040  -30.4736   10.3303 C.ar      14 UNK        -0.0643 
     12 C12       -51.3944  -30.2548   10.8241 C.ar      14 UNK        -0.0930 
     13 C13       -52.4753  -31.0025   10.3474 C.ar      14 UNK        -0.0827 
     14 C14       -52.2506  -31.9984    9.3916 C.ar      14 UNK        -0.1249 
     15 C15       -53.8806  -30.7339   10.8699 C.3       14 UNK         0.0141 
     16 S16       -55.0268  -30.3065    9.5193 S.3       14 UNK        -0.2313 
     17 C17       -56.3314  -29.3953   10.4069 C.3       14 UNK        -0.0915 
     18 CA        -56.3374  -27.8930   10.0250 C.3       13 UNK         0.0968 
     19 C         -57.5668  -27.1730   10.6427 C.2       13 UNK         0.5732 
     20 N         -58.7054  -27.1984    9.9637 N.am      13 UNK        -0.7310 
     21 O         -57.5092  -26.6289   11.7442 O.2       13 UNK        -0.5035 
     22 N         -55.0716  -27.2418   10.3868 N.am      13 UNK        -0.4233 
     23 C         -54.6769  -26.0380    9.9610 C.2       13 UNK         0.4989 
     24 O         -55.2888  -25.3658    9.1291 O.2       13 UNK        -0.4996 
     25 CA        -53.3976  -25.4875   10.6152 C.3       12 UNK         0.0216 
     26 CB        -52.9288  -24.1559   10.0018 C.3       12 UNK        -0.1964 
     27 N         -53.6117  -25.2973   12.0506 N.am      12 UNK        -0.4276 
     28 C         -53.4765  -26.2534   12.9750 C.2       12 UNK         0.5020 
     29 O         -53.0968  -27.4010   12.7247 O.2       12 UNK        -0.5489 
     30 CA        -53.8782  -25.8836   14.4042 C.3       11 UNK         0.0294 
     31 CB        -55.3456  -26.2659   14.6706 C.3       11 UNK        -0.2019 
     32 N         -52.9938  -26.5942   15.3177 N.am      11 UNK        -0.4493 
     33 C         -52.7580  -26.2630   16.5909 C.2       11 UNK         0.4932 
     34 O         -53.2967  -25.3185   17.1686 O.2       11 UNK        -0.5029 
     35 CA        -51.7555  -27.1366   17.3505 C.3       10 UNK         0.0280 
     36 CB        -52.0141  -28.6459   17.1562 C.3       10 UNK        -0.1976 
     37 N         -50.3933  -26.7906   16.9512 N.am      10 UNK        -0.4242 
     38 C         -49.3091  -26.9893   17.7111 C.2       10 UNK         0.5072 
     39 O         -49.3452  -27.4674   18.8465 O.2       10 UNK        -0.5224 
     40 CA        -47.9468  -26.6108   17.1072 C.3       9 UNK         0.0343 
     41 CB        -47.4767  -27.6922   16.1205 C.3       9 UNK        -0.2003 
     42 N         -47.9378  -25.3014   16.4510 N.am      9 UNK        -0.4272 
     43 C         -48.0442  -24.1275   17.0913 C.2       9 UNK         0.4988 
     44 O         -48.1654  -24.0203   18.3123 O.2       9 UNK        -0.5108 
     45 CA        -47.9935  -22.8520   16.2306 C.3       8 UNK         0.0248 
     46 CB        -46.5420  -22.4874   15.8792 C.3       8 UNK        -0.2001 
     47 N         -48.7840  -22.9625   15.0041 N.am      8 UNK        -0.4140 
     48 C         -50.1217  -23.0406   14.9706 C.2       8 UNK         0.5028 
     49 O         -50.8418  -22.9348   15.9632 O.2       8 UNK        -0.5428 
     50 CA        -50.7677  -23.3104   13.6005 C.3       7 UNK         0.0264 
     51 CB        -50.9449  -21.9996   12.8171 C.3       7 UNK        -0.1988 
     52 N         -50.0277  -24.2880   12.7945 N.am      7 UNK        -0.4454 
     53 C         -49.7869  -25.5548   13.1709 C.2       7 UNK         0.5027 
     54 O         -50.1979  -26.0517   14.2190 O.2       7 UNK        -0.5083 
     55 CA        -48.8895  -26.3980   12.2508 C.3       6 UNK         0.0844 
     56 C56       -49.7096  -26.9933   11.0816 C.3       14 UNK        -0.0967 
     57 S57       -48.7114  -28.0883   10.0205 S.3       14 UNK        -0.2604 
     58 C58       -48.9205  -29.6840   10.8710 C.3       14 UNK         0.0134 
     59 N         -47.7186  -25.6312   11.8182 N.am      6 UNK        -0.4116 
     60 C         -46.7281  -25.2377   12.6327 C.2       5 UNK         0.5034 
     61 O         -46.6715  -25.5202   13.8282 O.2       5 UNK        -0.5045 
     62 CA        -45.6430  -24.3323   12.0264 C.3       5 UNK         0.0224 
     63 CB        -44.5654  -25.1747   11.3258 C.3       5 UNK        -0.1978 
     64 N         -46.1893  -23.3524   11.0852 N.am      5 UNK        -0.4737 
     65 C         -47.0538  -22.3806   11.4127 C.2       4 UNK         0.5027 
     66 O         -47.4086  -22.1451   12.5666 O.2       4 UNK        -0.5211 
     67 CA        -47.6755  -21.5881   10.2471 C.3       4 UNK         0.0297 
     68 CB        -46.8268  -20.3488    9.9245 C.3       4 UNK        -0.1993 
     69 N         -47.8471  -22.4017    9.0362 N.am      4 UNK        -0.4486 
     70 C         -48.6253  -23.4898    8.9661 C.2       3 UNK         0.4961 
     71 O         -49.3516  -23.8728    9.8881 O.2       3 UNK        -0.5105 
     72 CA        -48.4988  -24.3383    7.6965 C.3       3 UNK         0.0299 
     73 CB        -47.1473  -25.0876    7.7021 C.3       3 UNK        -0.1972 
     74 N         -49.6129  -25.2836    7.6595 N.am      3 UNK        -0.4305 
     75 C         -49.9152  -26.1101    6.6535 C.2       2 UNK         0.5006 
     76 O         -49.2956  -26.1569    5.5867 O.2       2 UNK        -0.5106 
     77 CA        -51.1225  -27.0335    6.8571 C.3       2 UNK         0.0296 
     78 CB        -52.4290  -26.3134    6.4657 C.3       2 UNK        -0.2002 
     79 N         -50.9147  -28.2099    6.0189 N.am      2 UNK        -0.4032 
     80 C         -51.6355  -29.3378    6.0061 C.2       1 UNK         0.5000 
     81 O         -52.6121  -29.5312    6.7284 O.2       1 UNK        -0.5238 
     82 H82       -53.0918  -29.6949    2.8074 H         1 UNK         0.0889 
     83 H83       -52.7417  -28.2582    1.8604 H         1 UNK         0.0889 
     84 H84       -52.7857  -28.1451    3.6138 H         1 UNK         0.0889 
     85 H85       -49.5083  -30.0468    3.8068 H         1 UNK         0.3028 
     86 H86       -52.1541  -30.8334    4.5771 H         1 UNK         0.0864 
     87 H87       -49.7610  -32.0349    4.8856 H         1 UNK         0.0720 
     88 H88       -49.7621  -31.2064    6.4118 H         1 UNK         0.0720 
     89 H89       -49.6741  -33.4996    7.7001 H         1 UNK         0.0814 
     90 H90       -51.1686  -34.2418    8.2076 H         1 UNK         0.0814 
     91 H91       -48.9035  -31.6225    8.9671 H         1 UNK         0.1469 
     92 H92       -51.5620  -29.5060   11.5850 H         1 UNK         0.1381 
     93 H93       -53.0809  -32.5867    9.0251 H         1 UNK         0.1206 
     94 H94       -53.8620  -29.9226   11.5994 H         1 UNK         0.0813 
     95 H95       -54.2510  -31.6163   11.3933 H         1 UNK         0.0813 
     96 H96       -57.2841  -29.8595   10.1452 H         1 UNK         0.0638 
     97 H97       -56.2169  -29.5241   11.4849 H         1 UNK         0.0638 
     98 H98       -56.4325  -27.8234    8.9393 H         1 UNK         0.0568 
     99 H99       -58.7686  -27.6522    9.0657 H         1 UNK         0.3450 
    100 H100      -59.5180  -26.7493   10.3561 H         1 UNK         0.3450 
    101 H101      -54.5221  -27.6928   11.1073 H         1 UNK         0.2987 
    102 H102      -52.6095  -26.2253   10.4525 H         1 UNK         0.0766 
    103 H103      -52.8071  -24.2345    8.9229 H         1 UNK         0.0798 
    104 H104      -53.6382  -23.3490   10.1887 H         1 UNK         0.0798 
    105 H105      -51.9640  -23.8587   10.4085 H         1 UNK         0.0798 
    106 H106      -53.9915  -24.4031   12.3277 H         1 UNK         0.3198 
    107 H107      -53.7491  -24.8090   14.5486 H         1 UNK         0.0843 
    108 H108      -55.5110  -27.3366   14.5435 H         1 UNK         0.0831 
    109 H109      -56.0158  -25.7498   13.9818 H         1 UNK         0.0831 
    110 H110      -55.6530  -25.9970   15.6811 H         1 UNK         0.0831 
    111 H111      -52.4740  -27.3480   14.8839 H         1 UNK         0.3133 
    112 H112      -51.8812  -26.9059   18.4108 H         1 UNK         0.0566 
    113 H113      -51.7775  -28.9765   16.1444 H         1 UNK         0.0814 
    114 H114      -51.4125  -29.2395   17.8447 H         1 UNK         0.0814 
    115 H115      -53.0590  -28.8927   17.3491 H         1 UNK         0.0814 
    116 H116      -50.2838  -26.3909   16.0187 H         1 UNK         0.3091 
    117 H117      -47.2250  -26.5729   17.9259 H         1 UNK         0.0702 
    118 H118      -46.4649  -27.4928   15.7670 H         1 UNK         0.0785 
    119 H119      -48.1292  -27.7553   15.2492 H         1 UNK         0.0785 
    120 H120      -47.4663  -28.6753   16.5930 H         1 UNK         0.0785 
    121 H121      -47.7706  -25.2992   15.4494 H         1 UNK         0.2998 
    122 H122      -48.4112  -22.0353   16.8232 H         1 UNK         0.0697 
    123 H123      -46.0655  -23.2582   15.2729 H         1 UNK         0.0825 
    124 H124      -45.9414  -22.3639   16.7813 H         1 UNK         0.0825 
    125 H125      -46.4922  -21.5500   15.3247 H         1 UNK         0.0825 
    126 H126      -48.2750  -22.9604   14.1242 H         1 UNK         0.3029 
    127 H127      -51.7569  -23.7280   13.7880 H         1 UNK         0.0897 
    128 H128      -49.9900  -21.5162   12.6140 H         1 UNK         0.0792 
    129 H129      -51.5499  -21.2903   13.3835 H         1 UNK         0.0792 
    130 H130      -51.4473  -22.1603   11.8648 H         1 UNK         0.0792 
    131 H131      -49.6698  -23.9731   11.8977 H         1 UNK         0.3086 
    132 H132      -48.5207  -27.2339   12.8487 H         1 UNK         0.0583 
    133 H133      -50.5683  -27.5439   11.4646 H         1 UNK         0.1020 
    134 H134      -50.1289  -26.2059   10.4581 H         1 UNK         0.1020 
    135 H135      -48.0030  -30.2612   10.7469 H         1 UNK         0.0694 
    136 H136      -49.0301  -29.5284   11.9453 H         1 UNK         0.0694 
    137 H137      -47.7173  -25.3210   10.8585 H         1 UNK         0.2989 
    138 H138      -45.1748  -23.7850   12.8477 H         1 UNK         0.1055 
    139 H139      -44.1310  -25.9010   12.0146 H         1 UNK         0.0806 
    140 H140      -43.7495  -24.5510   10.9602 H         1 UNK         0.0806 
    141 H141      -44.9695  -25.7309   10.4789 H         1 UNK         0.0806 
    142 H142      -45.9368  -23.4584   10.1139 H         1 UNK         0.3061 
    143 H143      -48.6644  -21.2528   10.5659 H         1 UNK         0.0734 
    144 H144      -45.8281  -20.6187    9.5788 H         1 UNK         0.0832 
    145 H145      -47.2957  -19.7353    9.1550 H         1 UNK         0.0832 
    146 H146      -46.7064  -19.7201   10.8080 H         1 UNK         0.0832 
    147 H147      -47.2859  -22.1499    8.2346 H         1 UNK         0.3156 
    148 H148      -48.5616  -23.6815    6.8268 H         1 UNK         0.0589 
    149 H149      -47.0759  -25.7837    8.5386 H         1 UNK         0.0808 
    150 H150      -46.9978  -25.6587    6.7862 H         1 UNK         0.0808 
    151 H151      -46.3061  -24.3978    7.7763 H         1 UNK         0.0808 
    152 H152      -50.1809  -25.2636    8.4967 H         1 UNK         0.3098 
    153 H153      -51.1628  -27.3461    7.9030 H         1 UNK         0.0720 
    154 H154      -53.3066  -26.9063    6.7238 H         1 UNK         0.0791 
    155 H155      -52.4665  -26.1067    5.3955 H         1 UNK         0.0791 
    156 H156      -52.5268  -25.3584    6.9794 H         1 UNK         0.0791 
    157 H157      -50.1294  -28.1158    5.3851 H         1 UNK         0.3028 
@<TRIPOS>BOND
     1    1    2 1    
     2    1   82 1    
     3    1   83 1    
     4    1   84 1    
     5    2    3 2    
     6    2    4 am   BACKBONE|DICT|INTERRES
     7    4    5 1    
     8    4   85 1    
     9    5    6 1    
    10    5   80 1    
    11    5   86 1    
    12    6    7 1    
    13    6   87 1    
    14    6   88 1    
    15    7    8 1    
    16    8    9 1    
    17    8   89 1    
    18    8   90 1    
    19    9   10 ar   
    20    9   14 ar   
    21   10   11 ar   
    22   10   91 1    
    23   11   12 ar   
    24   11   58 1    
    25   12   13 ar   
    26   12   92 1    
    27   13   14 ar   
    28   13   15 1    
    29   14   93 1    
    30   15   16 1    
    31   15   94 1    
    32   15   95 1    
    33   16   17 1    
    34   17   18 1    
    35   17   96 1    
    36   17   97 1    
    37   18   19 1    
    38   18   22 1    
    39   18   98 1    
    40   19   20 am   BACKBONE|DICT|INTERRES
    41   19   21 2    
    42   20   99 1    
    43   20  100 1    
    44   22   23 am   BACKBONE|DICT|INTERRES
    45   22  101 1    
    46   23   24 2    
    47   23   25 1    
    48   25   26 1    
    49   25   27 1    
    50   25  102 1    
    51   26  103 1    
    52   26  104 1    
    53   26  105 1    
    54   27   28 am   BACKBONE|DICT|INTERRES
    55   27  106 1    
    56   28   29 2    
    57   28   30 1    
    58   30   31 1    
    59   30   32 1    
    60   30  107 1    
    61   31  108 1    
    62   31  109 1    
    63   31  110 1    
    64   32   33 am   BACKBONE|DICT|INTERRES
    65   32  111 1    
    66   33   34 2    
    67   33   35 1    
    68   35   36 1    
    69   35   37 1    
    70   35  112 1    
    71   36  113 1    
    72   36  114 1    
    73   36  115 1    
    74   37   38 am   BACKBONE|DICT|INTERRES
    75   37  116 1    
    76   38   39 2    
    77   38   40 1    
    78   40   41 1    
    79   40   42 1    
    80   40  117 1    
    81   41  118 1    
    82   41  119 1    
    83   41  120 1    
    84   42   43 am   BACKBONE|DICT|INTERRES
    85   42  121 1    
    86   43   44 2    
    87   43   45 1    
    88   45   46 1    
    89   45   47 1    
    90   45  122 1    
    91   46  123 1    
    92   46  124 1    
    93   46  125 1    
    94   47   48 am   BACKBONE|DICT|INTERRES
    95   47  126 1    
    96   48   49 2    
    97   48   50 1    
    98   50   51 1    
    99   50   52 1    
   100   50  127 1    
   101   51  128 1    
   102   51  129 1    
   103   51  130 1    
   104   52   53 am   BACKBONE|DICT|INTERRES
   105   52  131 1    
   106   53   54 2    
   107   53   55 1    
   108   55   56 1    
   109   55   59 1    
   110   55  132 1    
   111   56   57 1    
   112   56  133 1    
   113   56  134 1    
   114   57   58 1    
   115   58  135 1    
   116   58  136 1    
   117   59   60 am   BACKBONE|DICT|INTERRES
   118   59  137 1    
   119   60   61 2    
   120   60   62 1    
   121   62   63 1    
   122   62   64 1    
   123   62  138 1    
   124   63  139 1    
   125   63  140 1    
   126   63  141 1    
   127   64   65 am   BACKBONE|DICT|INTERRES
   128   64  142 1    
   129   65   66 2    
   130   65   67 1    
   131   67   68 1    
   132   67   69 1    
   133   67  143 1    
   134   68  144 1    
   135   68  145 1    
   136   68  146 1    
   137   69   70 am   BACKBONE|DICT|INTERRES
   138   69  147 1    
   139   70   71 2    
   140   70   72 1    
   141   72   73 1    
   142   72   74 1    
   143   72  148 1    
   144   73  149 1    
   145   73  150 1    
   146   73  151 1    
   147   74   75 am   BACKBONE|DICT|INTERRES
   148   74  152 1    
   149   75   76 2    
   150   75   77 1    
   151   77   78 1    
   152   77   79 1    
   153   77  153 1    
   154   78  154 1    
   155   78  155 1    
   156   78  156 1    
   157   79   80 am   BACKBONE|DICT|INTERRES
   158   79  157 1    
   159   80   81 2    
@<TRIPOS>SUBSTRUCTURE
     1 UNK         1 GROUP             0       ****    0 ROOT    
