@<TRIPOS>MOLECULE
3R207
157   159    1
SMALL
USER_CHARGES


@<TRIPOS>ATOM
      1 CA        -51.5741  -32.5103    7.5788 C.3       0 UNK        -0.1975 
      2 C         -50.7183  -31.3622    7.0643 C.2       0 UNK         0.4852 
      3 O         -50.6833  -31.1189    5.8575 O.2       0 UNK        -0.5216 
      4 N         -50.0247  -30.6648    7.9682 N.am      1 UNK        -0.4461 
      5 CA        -49.1051  -29.5639    7.6847 C.3       1 UNK         0.0864 
      6 C6        -49.8169  -28.2618    7.2152 C.3       14 UNK        -0.0898 
      7 S7        -50.9856  -27.5490    8.4238 S.3       14 UNK        -0.2598 
      8 C8        -52.5823  -27.7955    7.5875 C.3       14 UNK         0.0286 
      9 C9        -53.6643  -26.9469    8.2369 C.ar      14 UNK        -0.0844 
     10 C10       -53.7791  -25.5959    7.8999 C.ar      14 UNK        -0.0881 
     11 C11       -54.7467  -24.7862    8.5049 C.ar      14 UNK        -0.0643 
     12 C12       -55.6108  -25.3473    9.4503 C.ar      14 UNK        -0.0930 
     13 C13       -55.5191  -26.7027    9.7836 C.ar      14 UNK        -0.0827 
     14 C14       -54.5469  -27.4988    9.1695 C.ar      14 UNK        -0.1249 
     15 C15       -56.4677  -27.3007   10.8114 C.3       14 UNK         0.0141 
     16 S16       -55.7457  -27.1898   12.4730 S.3       14 UNK        -0.2313 
     17 C17       -57.1127  -27.7733   13.5372 C.3       14 UNK        -0.0915 
     18 CA        -57.0130  -29.2706   13.9485 C.3       13 UNK         0.0968 
     19 C         -57.6391  -30.2200   12.8823 C.2       13 UNK         0.5732 
     20 N         -56.9453  -31.2315   12.3739 N.am      13 UNK        -0.7310 
     21 O         -58.7972  -30.0406   12.5132 O.2       13 UNK        -0.5035 
     22 N         -55.6473  -29.6118   14.3657 N.am      13 UNK        -0.4233 
     23 C         -55.2808  -30.6272   15.1536 C.2       13 UNK         0.4989 
     24 O         -56.0731  -31.3488   15.7618 O.2       13 UNK        -0.4996 
     25 CA        -53.7600  -30.8818   15.2313 C.3       12 UNK         0.0216 
     26 CB        -53.4062  -32.2478   15.8566 C.3       12 UNK        -0.1964 
     27 N         -53.1000  -30.7135   13.9251 N.am      12 UNK        -0.4276 
     28 C         -53.3856  -31.3763   12.7899 C.2       12 UNK         0.5020 
     29 O         -54.2206  -32.2801   12.7328 O.2       12 UNK        -0.5489 
     30 CA        -52.6920  -30.9270   11.4863 C.3       11 UNK         0.0294 
     31 CB        -53.6143  -31.1081   10.2664 C.3       11 UNK        -0.2019 
     32 N         -52.2556  -29.5301   11.5402 N.am      11 UNK        -0.4493 
     33 C         -51.0686  -29.1220   12.0006 C.2       11 UNK         0.4932 
     34 O         -50.1876  -29.8963   12.3766 O.2       11 UNK        -0.5029 
     35 CA        -50.8378  -27.6018   12.1036 C.3       10 UNK         0.0280 
     36 CB        -52.1222  -26.7517   11.9968 C.3       10 UNK        -0.1976 
     37 N         -50.1185  -27.2459   13.3268 N.am      10 UNK        -0.4242 
     38 C         -50.4762  -27.5143   14.5928 C.2       10 UNK         0.5072 
     39 O         -51.4852  -28.1503   14.9079 O.2       10 UNK        -0.5224 
     40 CA        -49.5453  -26.9814   15.7014 C.3       9 UNK         0.0343 
     41 CB        -48.6883  -28.1228   16.2726 C.3       9 UNK        -0.2003 
     42 N         -48.6631  -25.8947   15.2545 N.am      9 UNK        -0.4272 
     43 C         -49.0825  -24.6701   14.9030 C.2       9 UNK         0.4988 
     44 O         -50.2523  -24.3006   15.0244 O.2       9 UNK        -0.5108 
     45 CA        -48.0284  -23.7132   14.3122 C.3       8 UNK         0.0248 
     46 CB        -46.9356  -24.4335   13.4957 C.3       8 UNK        -0.2001 
     47 N         -48.6877  -22.7382   13.4438 N.am      8 UNK        -0.4140 
     48 C         -49.0095  -21.4871   13.7973 C.2       8 UNK         0.5028 
     49 O         -48.6862  -20.9756   14.8711 O.2       8 UNK        -0.5428 
     50 CA        -49.8212  -20.6464   12.7949 C.3       7 UNK         0.0264 
     51 CB        -48.9597  -19.5137   12.2120 C.3       7 UNK        -0.1988 
     52 N         -50.3837  -21.4338   11.6941 N.am      7 UNK        -0.4454 
     53 C         -51.5458  -22.1047   11.7568 C.2       7 UNK         0.5027 
     54 O         -52.2676  -22.1241   12.7541 O.2       7 UNK        -0.5083 
     55 CA        -52.0083  -22.8457   10.4807 C.3       6 UNK         0.0844 
     56 C56       -52.9923  -21.9311    9.6972 C.3       14 UNK        -0.0967 
     57 S57       -53.3222  -22.4299    7.9700 S.3       14 UNK        -0.2604 
     58 C58       -54.9055  -23.3246    8.0993 C.3       14 UNK         0.0134 
     59 N         -50.9073  -23.3225    9.6396 N.am      6 UNK        -0.4116 
     60 C         -49.8825  -24.1066    9.9976 C.2       5 UNK         0.5034 
     61 O         -49.6773  -24.5063   11.1451 O.2       5 UNK        -0.5045 
     62 CA        -48.8662  -24.4564    8.8940 C.3       5 UNK         0.0224 
     63 CB        -49.2990  -24.0404    7.4703 C.3       5 UNK        -0.1978 
     64 N         -47.5289  -23.9271    9.1827 N.am      5 UNK        -0.4737 
     65 C         -47.2019  -22.6860    9.5816 C.2       4 UNK         0.5027 
     66 O         -48.0199  -21.7772    9.7372 O.2       4 UNK        -0.5211 
     67 CA        -45.7134  -22.4211    9.8728 C.3       4 UNK         0.0297 
     68 CB        -45.5166  -21.4357   11.0401 C.3       4 UNK        -0.1993 
     69 N         -45.0021  -23.6723   10.1580 N.am      4 UNK        -0.4486 
     70 C         -43.9233  -24.1111    9.4978 C.2       3 UNK         0.4961 
     71 O         -43.3278  -23.4590    8.6394 O.2       3 UNK        -0.5105 
     72 CA        -43.4300  -25.5331    9.8311 C.3       3 UNK         0.0299 
     73 CB        -42.3822  -25.4807   10.9551 C.3       3 UNK        -0.1972 
     74 N         -44.4776  -26.5013   10.1907 N.am      3 UNK        -0.4305 
     75 C         -45.5469  -26.8178    9.4460 C.2       2 UNK         0.5006 
     76 O         -45.8515  -26.2466    8.3952 O.2       2 UNK        -0.5106 
     77 CA        -46.4505  -27.9359    9.9807 C.3       2 UNK         0.0296 
     78 CB        -47.1975  -27.4872   11.2520 C.3       2 UNK        -0.2002 
     79 N         -47.4004  -28.2977    8.9304 N.am      2 UNK        -0.4032 
     80 C         -48.1735  -29.3889    8.9029 C.2       1 UNK         0.5000 
     81 O         -48.1604  -30.2531    9.7847 O.2       1 UNK        -0.5238 
     82 H82       -52.6254  -32.3203    7.3644 H         1 UNK         0.0889 
     83 H83       -51.4645  -32.6500    8.6541 H         1 UNK         0.0889 
     84 H84       -51.2889  -33.4400    7.0872 H         1 UNK         0.0889 
     85 H85       -50.0239  -30.9344    8.9448 H         1 UNK         0.3028 
     86 H86       -48.4536  -29.8934    6.8726 H         1 UNK         0.0864 
     87 H87       -50.3437  -28.4570    6.2806 H         1 UNK         0.0720 
     88 H88       -49.0863  -27.4929    6.9603 H         1 UNK         0.0720 
     89 H89       -52.4950  -27.5237    6.5345 H         1 UNK         0.0814 
     90 H90       -52.8470  -28.8534    7.6144 H         1 UNK         0.0814 
     91 H91       -53.1077  -25.1735    7.1652 H         1 UNK         0.1469 
     92 H92       -56.3652  -24.7322    9.9216 H         1 UNK         0.1381 
     93 H93       -54.4714  -28.5442    9.4250 H         1 UNK         0.1206 
     94 H94       -57.4246  -26.7770   10.7905 H         1 UNK         0.0813 
     95 H95       -56.6776  -28.3443   10.5718 H         1 UNK         0.0813 
     96 H96       -58.0730  -27.5398   13.0739 H         1 UNK         0.0638 
     97 H97       -57.0802  -27.1634   14.4411 H         1 UNK         0.0638 
     98 H98       -57.6490  -29.3955   14.8267 H         1 UNK         0.0568 
     99 H99       -57.3902  -31.8261   11.6939 H         1 UNK         0.3450 
    100 H100      -56.0019  -31.4467   12.6778 H         1 UNK         0.3450 
    101 H101      -54.9244  -29.0733   13.9120 H         1 UNK         0.2987 
    102 H102      -53.3545  -30.1057   15.8823 H         1 UNK         0.0766 
    103 H103      -52.3270  -32.3900   15.9124 H         1 UNK         0.0798 
    104 H104      -53.8250  -33.0769   15.2853 H         1 UNK         0.0798 
    105 H105      -53.7954  -32.3248   16.8726 H         1 UNK         0.0798 
    106 H106      -52.4028  -29.9777   13.8889 H         1 UNK         0.3198 
    107 H107      -51.8232  -31.5737   11.3458 H         1 UNK         0.0843 
    108 H108      -54.5791  -30.6218   10.4148 H         1 UNK         0.0831 
    109 H109      -53.8138  -32.1647   10.0833 H         1 UNK         0.0831 
    110 H110      -53.1650  -30.7031    9.3602 H         1 UNK         0.0831 
    111 H111      -52.9317  -28.8281   11.2753 H         1 UNK         0.3133 
    112 H112      -50.1870  -27.3294   11.2733 H         1 UNK         0.0566 
    113 H113      -52.5832  -26.8392   11.0143 H         1 UNK         0.0814 
    114 H114      -51.9025  -25.6947   12.1444 H         1 UNK         0.0814 
    115 H115      -52.8578  -27.0340   12.7492 H         1 UNK         0.0814 
    116 H116      -49.2655  -26.7268   13.1885 H         1 UNK         0.3091 
    117 H117      -50.1808  -26.5956   16.5014 H         1 UNK         0.0702 
    118 H118      -49.3173  -28.9333   16.6440 H         1 UNK         0.0785 
    119 H119      -48.0247  -28.5468   15.5176 H         1 UNK         0.0785 
    120 H120      -48.0763  -27.7818   17.1078 H         1 UNK         0.0785 
    121 H121      -47.6827  -26.1175   15.1614 H         1 UNK         0.2998 
    122 H122      -47.5462  -23.2113   15.1534 H         1 UNK         0.0697 
    123 H123      -47.3575  -24.9451   12.6322 H         1 UNK         0.0825 
    124 H124      -46.3877  -25.1640   14.0913 H         1 UNK         0.0825 
    125 H125      -46.1952  -23.7240   13.1301 H         1 UNK         0.0825 
    126 H126      -49.0689  -23.1073   12.5790 H         1 UNK         0.3029 
    127 H127      -50.6399  -20.1877   13.3540 H         1 UNK         0.0897 
    128 H128      -49.5390  -18.8786   11.5416 H         1 UNK         0.0792 
    129 H129      -48.1077  -19.9008   11.6542 H         1 UNK         0.0792 
    130 H130      -48.5664  -18.8742   13.0034 H         1 UNK         0.0792 
    131 H131      -49.8201  -21.4967   10.8513 H         1 UNK         0.3086 
    132 H132      -52.5556  -23.7353   10.7984 H         1 UNK         0.0583 
    133 H133      -53.9359  -21.8485   10.2399 H         1 UNK         0.1020 
    134 H134      -52.6012  -20.9126    9.6400 H         1 UNK         0.1020 
    135 H135      -55.5687  -22.7942    8.7843 H         1 UNK         0.0694 
    136 H136      -55.3925  -23.2980    7.1237 H         1 UNK         0.0694 
    137 H137      -50.9653  -23.0373    8.6729 H         1 UNK         0.2989 
    138 H138      -48.7793  -25.5432    8.9085 H         1 UNK         0.1055 
    139 H139      -50.2689  -24.4670    7.2087 H         1 UNK         0.0806 
    140 H140      -48.5868  -24.4032    6.7290 H         1 UNK         0.0806 
    141 H141      -49.3622  -22.9572    7.3584 H         1 UNK         0.0806 
    142 H142      -46.7712  -24.5844    9.0269 H         1 UNK         0.3061 
    143 H143      -45.3105  -21.9569    8.9705 H         1 UNK         0.0734 
    144 H144      -44.4623  -21.3211   11.2918 H         1 UNK         0.0832 
    145 H145      -45.8918  -20.4463   10.7768 H         1 UNK         0.0832 
    146 H146      -46.0464  -21.7532   11.9376 H         1 UNK         0.0832 
    147 H147      -45.4164  -24.2784   10.8511 H         1 UNK         0.3156 
    148 H148      -42.9411  -25.9174    8.9335 H         1 UNK         0.0589 
    149 H149      -42.8174  -25.1486   11.8985 H         1 UNK         0.0808 
    150 H150      -41.9248  -26.4565   11.1197 H         1 UNK         0.0808 
    151 H151      -41.5768  -24.7876   10.7069 H         1 UNK         0.0808 
    152 H152      -44.3215  -27.0220   11.0423 H         1 UNK         0.3098 
    153 H153      -45.8257  -28.8029   10.2050 H         1 UNK         0.0720 
    154 H154      -47.8500  -26.6381   11.0495 H         1 UNK         0.0791 
    155 H155      -46.5036  -27.1970   12.0410 H         1 UNK         0.0791 
    156 H156      -47.8115  -28.2924   11.6556 H         1 UNK         0.0791 
    157 H157      -47.3993  -27.6516    8.1501 H         1 UNK         0.3028 
@<TRIPOS>BOND
     1    1    2 1    
     2    1   82 1    
     3    1   83 1    
     4    1   84 1    
     5    2    3 2    
     6    2    4 am   BACKBONE|DICT|INTERRES
     7    4    5 1    
     8    4   85 1    
     9    5    6 1    
    10    5   80 1    
    11    5   86 1    
    12    6    7 1    
    13    6   87 1    
    14    6   88 1    
    15    7    8 1    
    16    8    9 1    
    17    8   89 1    
    18    8   90 1    
    19    9   10 ar   
    20    9   14 ar   
    21   10   11 ar   
    22   10   91 1    
    23   11   12 ar   
    24   11   58 1    
    25   12   13 ar   
    26   12   92 1    
    27   13   14 ar   
    28   13   15 1    
    29   14   93 1    
    30   15   16 1    
    31   15   94 1    
    32   15   95 1    
    33   16   17 1    
    34   17   18 1    
    35   17   96 1    
    36   17   97 1    
    37   18   19 1    
    38   18   22 1    
    39   18   98 1    
    40   19   20 am   BACKBONE|DICT|INTERRES
    41   19   21 2    
    42   20   99 1    
    43   20  100 1    
    44   22   23 am   BACKBONE|DICT|INTERRES
    45   22  101 1    
    46   23   24 2    
    47   23   25 1    
    48   25   26 1    
    49   25   27 1    
    50   25  102 1    
    51   26  103 1    
    52   26  104 1    
    53   26  105 1    
    54   27   28 am   BACKBONE|DICT|INTERRES
    55   27  106 1    
    56   28   29 2    
    57   28   30 1    
    58   30   31 1    
    59   30   32 1    
    60   30  107 1    
    61   31  108 1    
    62   31  109 1    
    63   31  110 1    
    64   32   33 am   BACKBONE|DICT|INTERRES
    65   32  111 1    
    66   33   34 2    
    67   33   35 1    
    68   35   36 1    
    69   35   37 1    
    70   35  112 1    
    71   36  113 1    
    72   36  114 1    
    73   36  115 1    
    74   37   38 am   BACKBONE|DICT|INTERRES
    75   37  116 1    
    76   38   39 2    
    77   38   40 1    
    78   40   41 1    
    79   40   42 1    
    80   40  117 1    
    81   41  118 1    
    82   41  119 1    
    83   41  120 1    
    84   42   43 am   BACKBONE|DICT|INTERRES
    85   42  121 1    
    86   43   44 2    
    87   43   45 1    
    88   45   46 1    
    89   45   47 1    
    90   45  122 1    
    91   46  123 1    
    92   46  124 1    
    93   46  125 1    
    94   47   48 am   BACKBONE|DICT|INTERRES
    95   47  126 1    
    96   48   49 2    
    97   48   50 1    
    98   50   51 1    
    99   50   52 1    
   100   50  127 1    
   101   51  128 1    
   102   51  129 1    
   103   51  130 1    
   104   52   53 am   BACKBONE|DICT|INTERRES
   105   52  131 1    
   106   53   54 2    
   107   53   55 1    
   108   55   56 1    
   109   55   59 1    
   110   55  132 1    
   111   56   57 1    
   112   56  133 1    
   113   56  134 1    
   114   57   58 1    
   115   58  135 1    
   116   58  136 1    
   117   59   60 am   BACKBONE|DICT|INTERRES
   118   59  137 1    
   119   60   61 2    
   120   60   62 1    
   121   62   63 1    
   122   62   64 1    
   123   62  138 1    
   124   63  139 1    
   125   63  140 1    
   126   63  141 1    
   127   64   65 am   BACKBONE|DICT|INTERRES
   128   64  142 1    
   129   65   66 2    
   130   65   67 1    
   131   67   68 1    
   132   67   69 1    
   133   67  143 1    
   134   68  144 1    
   135   68  145 1    
   136   68  146 1    
   137   69   70 am   BACKBONE|DICT|INTERRES
   138   69  147 1    
   139   70   71 2    
   140   70   72 1    
   141   72   73 1    
   142   72   74 1    
   143   72  148 1    
   144   73  149 1    
   145   73  150 1    
   146   73  151 1    
   147   74   75 am   BACKBONE|DICT|INTERRES
   148   74  152 1    
   149   75   76 2    
   150   75   77 1    
   151   77   78 1    
   152   77   79 1    
   153   77  153 1    
   154   78  154 1    
   155   78  155 1    
   156   78  156 1    
   157   79   80 am   BACKBONE|DICT|INTERRES
   158   79  157 1    
   159   80   81 2    
@<TRIPOS>SUBSTRUCTURE
     1 UNK         1 GROUP             0       ****    0 ROOT    
