@<TRIPOS>MOLECULE
3R207
157   159    1
SMALL
USER_CHARGES


@<TRIPOS>ATOM
      1 CA        -44.4451  -27.9301    5.5560 C.3       0 UNK        -0.1975 
      2 C         -45.6949  -28.3599    4.8027 C.2       0 UNK         0.4852 
      3 O         -45.5938  -29.0580    3.7936 O.2       0 UNK        -0.5216 
      4 N         -46.8692  -27.9285    5.2759 N.am      1 UNK        -0.4461 
      5 CA        -48.1891  -28.2421    4.7104 C.3       1 UNK         0.0864 
      6 C6        -49.2133  -28.6150    5.8199 C.3       14 UNK        -0.0898 
      7 S7        -48.6303  -29.9293    6.9496 S.3       14 UNK        -0.2598 
      8 C8        -50.0409  -31.0801    6.9720 C.3       14 UNK         0.0286 
      9 C9        -51.1371  -30.6308    7.9305 C.ar      14 UNK        -0.0844 
     10 C10       -51.1561  -31.0996    9.2474 C.ar      14 UNK        -0.0881 
     11 C11       -52.1916  -30.7407   10.1156 C.ar      14 UNK        -0.0643 
     12 C12       -53.2058  -29.8904    9.6626 C.ar      14 UNK        -0.0930 
     13 C13       -53.2039  -29.4117    8.3438 C.ar      14 UNK        -0.0827 
     14 C14       -52.1625  -29.7898    7.4897 C.ar      14 UNK        -0.1249 
     15 C15       -54.3182  -28.5358    7.7633 C.3       14 UNK         0.0141 
     16 S16       -55.5994  -27.9681    8.9340 S.3       14 UNK        -0.2313 
     17 C17       -54.7731  -26.5178    9.6692 C.3       14 UNK        -0.0915 
     18 CA        -55.6612  -25.7550   10.6933 C.3       13 UNK         0.0968 
     19 C         -56.8765  -25.0164   10.0619 C.2       13 UNK         0.5732 
     20 N         -58.0383  -24.9811   10.7057 N.am      13 UNK        -0.7310 
     21 O         -56.7630  -24.4402    8.9825 O.2       13 UNK        -0.5035 
     22 N         -56.0070  -26.5903   11.8554 N.am      13 UNK        -0.4233 
     23 C         -55.1963  -26.7808   12.8981 C.2       13 UNK         0.4989 
     24 O         -54.0911  -26.2509   13.0050 O.2       13 UNK        -0.4996 
     25 CA        -55.6760  -27.7361   13.9964 C.3       12 UNK         0.0216 
     26 CB        -55.6956  -29.1926   13.4869 C.3       12 UNK        -0.1964 
     27 N         -54.7691  -27.5994   15.1360 N.am      12 UNK        -0.4276 
     28 C         -54.9699  -28.0565   16.3771 C.2       12 UNK         0.5020 
     29 O         -55.9832  -28.6622   16.7288 O.2       12 UNK        -0.5489 
     30 CA        -53.8546  -27.8023   17.4034 C.3       11 UNK         0.0294 
     31 CB        -52.8092  -28.9288   17.3426 C.3       11 UNK        -0.2019 
     32 N         -53.1818  -26.5222   17.1843 N.am      11 UNK        -0.4493 
     33 C         -53.5171  -25.3603   17.7578 C.2       11 UNK         0.4932 
     34 O         -54.4581  -25.2334   18.5434 O.2       11 UNK        -0.5029 
     35 CA        -52.6463  -24.1402   17.3870 C.3       10 UNK         0.0280 
     36 CB        -52.8075  -22.9585   18.3663 C.3       10 UNK        -0.1976 
     37 N         -51.2293  -24.4809   17.2002 N.am      10 UNK        -0.4242 
     38 C         -50.3785  -24.9957   18.1024 C.2       10 UNK         0.5072 
     39 O         -50.6605  -25.1779   19.2875 O.2       10 UNK        -0.5224 
     40 CA        -48.9797  -25.4144   17.6039 C.3       9 UNK         0.0343 
     41 CB        -48.8799  -26.9483   17.5463 C.3       9 UNK        -0.2003 
     42 N         -48.6287  -24.8732   16.2876 N.am      9 UNK        -0.4272 
     43 C         -48.2727  -23.6035   16.0449 C.2       9 UNK         0.4988 
     44 O         -48.1220  -22.7535   16.9227 O.2       9 UNK        -0.5108 
     45 CA        -48.1007  -23.2053   14.5659 C.3       8 UNK         0.0248 
     46 CB        -46.7001  -23.5763   14.0528 C.3       8 UNK        -0.2001 
     47 N         -49.1233  -23.8038   13.7006 N.am      8 UNK        -0.4140 
     48 C         -50.4374  -23.5521   13.8021 C.2       8 UNK         0.5028 
     49 O         -50.9193  -22.7197   14.5695 O.2       8 UNK        -0.5428 
     50 CA        -51.3819  -24.4213   12.9648 C.3       7 UNK         0.0264 
     51 CB        -51.5869  -23.8387   11.5573 C.3       7 UNK        -0.1988 
     52 N         -50.9107  -25.8049   12.8791 N.am      7 UNK        -0.4454 
     53 C         -51.0386  -26.7042   13.8677 C.2       7 UNK         0.5027 
     54 O         -51.5683  -26.4596   14.9504 O.2       7 UNK        -0.5083 
     55 CA        -50.4724  -28.1155   13.6227 C.3       6 UNK         0.0844 
     56 C56       -51.5438  -28.9968   12.9368 C.3       14 UNK        -0.0967 
     57 S57       -50.9452  -30.6872   12.6124 S.3       14 UNK        -0.2604 
     58 C58       -52.2504  -31.3296   11.5199 C.3       14 UNK         0.0134 
     59 N         -49.2173  -28.0854   12.8730 N.am      6 UNK        -0.4116 
     60 C         -48.0878  -27.4696   13.2482 C.2       5 UNK         0.5034 
     61 O         -47.9352  -26.9069   14.3312 O.2       5 UNK        -0.5045 
     62 CA        -46.9743  -27.4023   12.1877 C.3       5 UNK         0.0224 
     63 CB        -46.0373  -28.6139   12.3074 C.3       5 UNK        -0.1978 
     64 N         -47.5156  -27.3277   10.8240 N.am      5 UNK        -0.4737 
     65 C         -48.2837  -26.3246   10.3788 C.2       4 UNK         0.5027 
     66 O         -48.5319  -25.3096   11.0336 O.2       4 UNK        -0.5211 
     67 CA        -48.9894  -26.5533    9.0410 C.3       4 UNK         0.0297 
     68 CB        -50.4399  -27.0133    9.2732 C.3       4 UNK        -0.1993 
     69 N         -48.9938  -25.3292    8.2429 N.am      4 UNK        -0.4486 
     70 C         -48.0497  -25.0357    7.3460 C.2       3 UNK         0.4961 
     71 O         -47.0726  -25.7570    7.1163 O.2       3 UNK        -0.5105 
     72 CA        -48.2378  -23.7549    6.5243 C.3       3 UNK         0.0299 
     73 CB        -47.3671  -22.6124    7.0697 C.3       3 UNK        -0.1972 
     74 N         -47.8132  -24.1055    5.1764 N.am      3 UNK        -0.4305 
     75 C         -48.5166  -23.9395    4.0508 C.2       2 UNK         0.5006 
     76 O         -49.4786  -23.1797    3.9358 O.2       2 UNK        -0.5106 
     77 CA        -48.1086  -24.8523    2.8774 C.3       2 UNK         0.0296 
     78 CB        -46.9013  -24.2744    2.1212 C.3       2 UNK        -0.2002 
     79 N         -47.7960  -26.2057    3.3568 N.am      2 UNK        -0.4032 
     80 C         -48.7068  -27.0572    3.8591 C.2       1 UNK         0.5000 
     81 O         -49.9207  -26.8936    3.7186 O.2       1 UNK        -0.5238 
     82 H82       -44.6837  -27.2958    6.4100 H         1 UNK         0.0889 
     83 H83       -43.7795  -27.3746    4.8960 H         1 UNK         0.0889 
     84 H84       -43.9101  -28.8054    5.9233 H         1 UNK         0.0889 
     85 H85       -46.8839  -27.3133    6.0873 H         1 UNK         0.3028 
     86 H86       -48.1081  -29.0971    4.0360 H         1 UNK         0.0864 
     87 H87       -50.1485  -28.9360    5.3596 H         1 UNK         0.0720 
     88 H88       -49.4641  -27.7405    6.4201 H         1 UNK         0.0720 
     89 H89       -49.6764  -32.0646    7.2691 H         1 UNK         0.0814 
     90 H90       -50.4402  -31.2048    5.9644 H         1 UNK         0.0814 
     91 H91       -50.3766  -31.7646    9.5938 H         1 UNK         0.1469 
     92 H92       -54.0083  -29.6332   10.3383 H         1 UNK         0.1381 
     93 H93       -52.1625  -29.4415    6.4662 H         1 UNK         0.1206 
     94 H94       -54.8191  -29.1068    6.9804 H         1 UNK         0.0813 
     95 H95       -53.8776  -27.6676    7.2708 H         1 UNK         0.0813 
     96 H96       -53.8553  -26.8551   10.1538 H         1 UNK         0.0638 
     97 H97       -54.4546  -25.8482    8.8685 H         1 UNK         0.0638 
     98 H98       -55.0540  -24.9266   11.0634 H         1 UNK         0.0568 
     99 H99       -58.8118  -24.4916   10.2837 H         1 UNK         0.3450 
    100 H100      -58.1438  -25.3845   11.6218 H         1 UNK         0.3450 
    101 H101      -56.8889  -27.0787   11.8015 H         1 UNK         0.2987 
    102 H102      -56.6789  -27.4347   14.3049 H         1 UNK         0.0766 
    103 H103      -56.0306  -29.8846   14.2594 H         1 UNK         0.0798 
    104 H104      -54.7104  -29.5173   13.1543 H         1 UNK         0.0798 
    105 H105      -56.3760  -29.3077   12.6424 H         1 UNK         0.0798 
    106 H106      -53.9354  -27.0593   14.9257 H         1 UNK         0.3198 
    107 H107      -54.3055  -27.8107   18.3983 H         1 UNK         0.0843 
    108 H108      -52.3182  -28.9755   16.3697 H         1 UNK         0.0831 
    109 H109      -53.2719  -29.9003   17.5219 H         1 UNK         0.0831 
    110 H110      -52.0371  -28.7926   18.1001 H         1 UNK         0.0831 
    111 H111      -52.4343  -26.5101   16.4904 H         1 UNK         0.3133 
    112 H112      -53.0010  -23.8064   16.4108 H         1 UNK         0.0566 
    113 H113      -52.1928  -22.1099   18.0662 H         1 UNK         0.0814 
    114 H114      -53.8418  -22.6136   18.3960 H         1 UNK         0.0814 
    115 H115      -52.5279  -23.2334   19.3837 H         1 UNK         0.0814 
    116 H116      -50.8901  -24.3792   16.2529 H         1 UNK         0.3091 
    117 H117      -48.2507  -25.0505   18.3309 H         1 UNK         0.0702 
    118 H118      -47.8813  -27.2704   17.2502 H         1 UNK         0.0785 
    119 H119      -49.5917  -27.3710   16.8363 H         1 UNK         0.0785 
    120 H120      -49.0882  -27.3925   18.5206 H         1 UNK         0.0785 
    121 H121      -48.6326  -25.5310   15.5128 H         1 UNK         0.2998 
    122 H122      -48.2090  -22.1206   14.5001 H         1 UNK         0.0697 
    123 H123      -46.5134  -24.6480   14.1167 H         1 UNK         0.0825 
    124 H124      -45.9279  -23.0780   14.6405 H         1 UNK         0.0825 
    125 H125      -46.5635  -23.2733   13.0145 H         1 UNK         0.0825 
    126 H126      -48.8125  -24.4710   13.0032 H         1 UNK         0.3029 
    127 H127      -52.3507  -24.4161   13.4687 H         1 UNK         0.0897 
    128 H128      -50.6577  -23.7961   10.9896 H         1 UNK         0.0792 
    129 H129      -51.9782  -22.8221   11.6141 H         1 UNK         0.0792 
    130 H130      -52.3064  -24.4286   10.9893 H         1 UNK         0.0792 
    131 H131      -50.3963  -26.0535   12.0463 H         1 UNK         0.3086 
    132 H132      -50.2492  -28.5489   14.5999 H         1 UNK         0.0583 
    133 H133      -52.4310  -29.0675   13.5682 H         1 UNK         0.1020 
    134 H134      -51.8711  -28.5488   11.9960 H         1 UNK         0.1020 
    135 H135      -52.1414  -32.4129   11.4507 H         1 UNK         0.0694 
    136 H136      -53.2243  -31.1543   11.9790 H         1 UNK         0.0694 
    137 H137      -49.2272  -28.5552   11.9804 H         1 UNK         0.2989 
    138 H138      -46.3957  -26.4946   12.3731 H         1 UNK         0.1055 
    139 H139      -45.6096  -28.6770   13.3092 H         1 UNK         0.0806 
    140 H140      -45.2053  -28.5429   11.6064 H         1 UNK         0.0806 
    141 H141      -46.5593  -29.5526   12.1165 H         1 UNK         0.0806 
    142 H142      -47.3542  -28.1254   10.2244 H         1 UNK         0.3061 
    143 H143      -48.4658  -27.3462    8.5041 H         1 UNK         0.0734 
    144 H144      -50.9566  -27.1818    8.3285 H         1 UNK         0.0832 
    145 H145      -50.4712  -27.9566    9.8202 H         1 UNK         0.0832 
    146 H146      -51.0189  -26.2837    9.8389 H         1 UNK         0.0832 
    147 H147      -49.7342  -24.6670    8.4245 H         1 UNK         0.3156 
    148 H148      -49.2899  -23.4614    6.5355 H         1 UNK         0.0589 
    149 H149      -47.6663  -22.3446    8.0839 H         1 UNK         0.0808 
    150 H150      -46.3118  -22.8870    7.1012 H         1 UNK         0.0808 
    151 H151      -47.4613  -21.7172    6.4548 H         1 UNK         0.0808 
    152 H152      -47.0555  -24.7750    5.1689 H         1 UNK         0.3098 
    153 H153      -48.9517  -24.9139    2.1858 H         1 UNK         0.0720 
    154 H154      -46.6409  -24.8917    1.2611 H         1 UNK         0.0791 
    155 H155      -46.0191  -24.1964    2.7578 H         1 UNK         0.0791 
    156 H156      -47.1214  -23.2741    1.7456 H         1 UNK         0.0791 
    157 H157      -46.8207  -26.4407    3.4705 H         1 UNK         0.3028 
@<TRIPOS>BOND
     1    1    2 1    
     2    1   82 1    
     3    1   83 1    
     4    1   84 1    
     5    2    3 2    
     6    2    4 am   BACKBONE|DICT|INTERRES
     7    4    5 1    
     8    4   85 1    
     9    5    6 1    
    10    5   80 1    
    11    5   86 1    
    12    6    7 1    
    13    6   87 1    
    14    6   88 1    
    15    7    8 1    
    16    8    9 1    
    17    8   89 1    
    18    8   90 1    
    19    9   10 ar   
    20    9   14 ar   
    21   10   11 ar   
    22   10   91 1    
    23   11   12 ar   
    24   11   58 1    
    25   12   13 ar   
    26   12   92 1    
    27   13   14 ar   
    28   13   15 1    
    29   14   93 1    
    30   15   16 1    
    31   15   94 1    
    32   15   95 1    
    33   16   17 1    
    34   17   18 1    
    35   17   96 1    
    36   17   97 1    
    37   18   19 1    
    38   18   22 1    
    39   18   98 1    
    40   19   20 am   BACKBONE|DICT|INTERRES
    41   19   21 2    
    42   20   99 1    
    43   20  100 1    
    44   22   23 am   BACKBONE|DICT|INTERRES
    45   22  101 1    
    46   23   24 2    
    47   23   25 1    
    48   25   26 1    
    49   25   27 1    
    50   25  102 1    
    51   26  103 1    
    52   26  104 1    
    53   26  105 1    
    54   27   28 am   BACKBONE|DICT|INTERRES
    55   27  106 1    
    56   28   29 2    
    57   28   30 1    
    58   30   31 1    
    59   30   32 1    
    60   30  107 1    
    61   31  108 1    
    62   31  109 1    
    63   31  110 1    
    64   32   33 am   BACKBONE|DICT|INTERRES
    65   32  111 1    
    66   33   34 2    
    67   33   35 1    
    68   35   36 1    
    69   35   37 1    
    70   35  112 1    
    71   36  113 1    
    72   36  114 1    
    73   36  115 1    
    74   37   38 am   BACKBONE|DICT|INTERRES
    75   37  116 1    
    76   38   39 2    
    77   38   40 1    
    78   40   41 1    
    79   40   42 1    
    80   40  117 1    
    81   41  118 1    
    82   41  119 1    
    83   41  120 1    
    84   42   43 am   BACKBONE|DICT|INTERRES
    85   42  121 1    
    86   43   44 2    
    87   43   45 1    
    88   45   46 1    
    89   45   47 1    
    90   45  122 1    
    91   46  123 1    
    92   46  124 1    
    93   46  125 1    
    94   47   48 am   BACKBONE|DICT|INTERRES
    95   47  126 1    
    96   48   49 2    
    97   48   50 1    
    98   50   51 1    
    99   50   52 1    
   100   50  127 1    
   101   51  128 1    
   102   51  129 1    
   103   51  130 1    
   104   52   53 am   BACKBONE|DICT|INTERRES
   105   52  131 1    
   106   53   54 2    
   107   53   55 1    
   108   55   56 1    
   109   55   59 1    
   110   55  132 1    
   111   56   57 1    
   112   56  133 1    
   113   56  134 1    
   114   57   58 1    
   115   58  135 1    
   116   58  136 1    
   117   59   60 am   BACKBONE|DICT|INTERRES
   118   59  137 1    
   119   60   61 2    
   120   60   62 1    
   121   62   63 1    
   122   62   64 1    
   123   62  138 1    
   124   63  139 1    
   125   63  140 1    
   126   63  141 1    
   127   64   65 am   BACKBONE|DICT|INTERRES
   128   64  142 1    
   129   65   66 2    
   130   65   67 1    
   131   67   68 1    
   132   67   69 1    
   133   67  143 1    
   134   68  144 1    
   135   68  145 1    
   136   68  146 1    
   137   69   70 am   BACKBONE|DICT|INTERRES
   138   69  147 1    
   139   70   71 2    
   140   70   72 1    
   141   72   73 1    
   142   72   74 1    
   143   72  148 1    
   144   73  149 1    
   145   73  150 1    
   146   73  151 1    
   147   74   75 am   BACKBONE|DICT|INTERRES
   148   74  152 1    
   149   75   76 2    
   150   75   77 1    
   151   77   78 1    
   152   77   79 1    
   153   77  153 1    
   154   78  154 1    
   155   78  155 1    
   156   78  156 1    
   157   79   80 am   BACKBONE|DICT|INTERRES
   158   79  157 1    
   159   80   81 2    
@<TRIPOS>SUBSTRUCTURE
     1 UNK         1 GROUP             0       ****    0 ROOT    
