@<TRIPOS>MOLECULE
3R207
157   159    1
SMALL
USER_CHARGES


@<TRIPOS>ATOM
      1 CA        -42.8512  -30.0323    6.6273 C.3       0 UNK        -0.1975 
      2 C         -44.2812  -29.7289    6.2054 C.2       0 UNK         0.4852 
      3 O         -44.4936  -29.1835    5.1211 O.2       0 UNK        -0.5216 
      4 N         -45.2583  -30.0777    7.0561 N.am      1 UNK        -0.4461 
      5 CA        -46.7000  -29.8796    6.8602 C.3       1 UNK         0.0864 
      6 C6        -47.4928  -30.4111    8.0812 C.3       14 UNK        -0.0898 
      7 S7        -49.3045  -30.3814    7.8541 S.3       14 UNK        -0.2598 
      8 C8        -49.7458  -29.0098    8.9670 C.3       14 UNK         0.0286 
      9 C9        -51.2382  -28.7281    8.9394 C.ar      14 UNK        -0.0844 
     10 C10       -51.7491  -27.6919    8.1516 C.ar      14 UNK        -0.0881 
     11 C11       -53.1186  -27.4056    8.1584 C.ar      14 UNK        -0.0643 
     12 C12       -53.9772  -28.1767    8.9474 C.ar      14 UNK        -0.0930 
     13 C13       -53.4777  -29.2176    9.7351 C.ar      14 UNK        -0.0827 
     14 C14       -52.1077  -29.4909    9.7235 C.ar      14 UNK        -0.1249 
     15 C15       -54.4152  -30.0489   10.5984 C.3       14 UNK         0.0141 
     16 S16       -54.5760  -29.3562   12.2729 S.3       14 UNK        -0.2313 
     17 C17       -55.5540  -27.8488   11.9408 C.3       14 UNK        -0.0915 
     18 CA        -56.3780  -27.3324   13.1482 C.3       13 UNK         0.0968 
     19 C         -57.4836  -28.3318   13.5860 C.2       13 UNK         0.5732 
     20 N         -57.3202  -29.0757   14.6728 N.am      13 UNK        -0.7310 
     21 O         -58.5239  -28.4153   12.9368 O.2       13 UNK        -0.5035 
     22 N         -55.5120  -26.8882   14.2508 N.am      13 UNK        -0.4233 
     23 C         -55.4429  -25.6282   14.7049 C.2       13 UNK         0.4989 
     24 O         -56.0833  -24.6913   14.2226 O.2       13 UNK        -0.4996 
     25 CA        -54.4993  -25.3576   15.8954 C.3       12 UNK         0.0216 
     26 CB        -54.8201  -24.0413   16.6388 C.3       12 UNK        -0.1964 
     27 N         -54.4138  -26.4800   16.8346 N.am      12 UNK        -0.4276 
     28 C         -55.4103  -27.0143   17.5599 C.2       12 UNK         0.5020 
     29 O         -56.5514  -26.5512   17.6011 O.2       12 UNK        -0.5489 
     30 CA        -55.0832  -28.2930   18.3649 C.3       11 UNK         0.0294 
     31 CB        -56.3175  -29.2022   18.5483 C.3       11 UNK        -0.2019 
     32 N         -53.9551  -29.0697   17.8290 N.am      11 UNK        -0.4493 
     33 C         -53.8366  -29.5664   16.5894 C.2       11 UNK         0.4932 
     34 O         -54.6917  -29.4436   15.7111 O.2       11 UNK        -0.5029 
     35 CA        -52.5039  -30.2614   16.2639 C.3       10 UNK         0.0280 
     36 CB        -52.7502  -31.7032   15.7902 C.3       10 UNK        -0.1976 
     37 N         -51.7184  -29.5500   15.2486 N.am      10 UNK        -0.4242 
     38 C         -51.4095  -28.2443   15.2388 C.2       10 UNK         0.5072 
     39 O         -51.7786  -27.4437   16.1037 O.2       10 UNK        -0.5224 
     40 CA        -50.5294  -27.7727   14.0644 C.3       9 UNK         0.0343 
     41 CB        -51.1777  -28.0795   12.7048 C.3       9 UNK        -0.2003 
     42 N         -50.2524  -26.3378   14.1335 N.am      9 UNK        -0.4272 
     43 C         -49.3044  -25.7758   14.8979 C.2       9 UNK         0.4988 
     44 O         -48.5196  -26.4246   15.5923 O.2       9 UNK        -0.5108 
     45 CA        -49.1845  -24.2396   14.8861 C.3       8 UNK         0.0248 
     46 CB        -47.8240  -23.8022   14.3134 C.3       8 UNK        -0.2001 
     47 N         -50.2551  -23.5996   14.1166 N.am      8 UNK        -0.4140 
     48 C         -51.4013  -23.1442   14.6443 C.2       8 UNK         0.5028 
     49 O         -51.6418  -23.1514   15.8512 O.2       8 UNK        -0.5428 
     50 CA        -52.4683  -22.5804   13.6831 C.3       7 UNK         0.0264 
     51 CB        -52.4930  -21.0448   13.7508 C.3       7 UNK        -0.1988 
     52 N         -52.3005  -22.9925   12.2879 N.am      7 UNK        -0.4454 
     53 C         -52.4567  -24.2442   11.8308 C.2       7 UNK         0.5027 
     54 O         -52.8115  -25.1813   12.5427 O.2       7 UNK        -0.5083 
     55 CA        -52.0848  -24.4981   10.3522 C.3       6 UNK         0.0844 
     56 C56       -53.3398  -24.4182    9.4459 C.3       14 UNK        -0.0967 
     57 S57       -52.9382  -24.6558    7.6774 S.3       14 UNK        -0.2604 
     58 C58       -53.6819  -26.2771    7.3040 C.3       14 UNK         0.0134 
     59 N         -51.0063  -23.6110    9.8884 N.am      6 UNK        -0.4116 
     60 C         -49.7686  -23.5733   10.3976 C.2       5 UNK         0.5034 
     61 O         -49.3994  -24.2613   11.3511 O.2       5 UNK        -0.5045 
     62 CA        -48.8069  -22.5337    9.8021 C.3       5 UNK         0.0224 
     63 CB        -48.7793  -21.2736   10.6835 C.3       5 UNK        -0.1978 
     64 N         -47.4499  -23.0713    9.6912 N.am      5 UNK        -0.4737 
     65 C         -47.0885  -24.0005    8.7993 C.2       4 UNK         0.5027 
     66 O         -47.8490  -24.4456    7.9365 O.2       4 UNK        -0.5211 
     67 CA        -45.6485  -24.5241    8.9124 C.3       4 UNK         0.0297 
     68 CB        -45.5532  -25.5840   10.0233 C.3       4 UNK        -0.1993 
     69 N         -45.2485  -25.1323    7.6454 N.am      4 UNK        -0.4486 
     70 C         -44.4851  -24.5474    6.7116 C.2       3 UNK         0.4961 
     71 O         -43.9137  -23.4682    6.8737 O.2       3 UNK        -0.5105 
     72 CA        -44.3280  -25.2762    5.3597 C.3       3 UNK         0.0299 
     73 CB        -43.0174  -26.0776    5.3348 C.3       3 UNK        -0.1972 
     74 N         -45.4491  -26.1694    5.0540 N.am      3 UNK        -0.4305 
     75 C         -46.7017  -25.7524    4.8104 C.2       2 UNK         0.5006 
     76 O         -46.9919  -24.5722    4.6092 O.2       2 UNK        -0.5106 
     77 CA        -47.8317  -26.8040    4.8029 C.3       2 UNK         0.0296 
     78 CB        -48.4091  -26.9687    3.3867 C.3       2 UNK        -0.2002 
     79 N         -47.4710  -28.1283    5.3234 N.am      2 UNK        -0.4032 
     80 C         -47.0244  -28.4016    6.5583 C.2       1 UNK         0.5000 
     81 O         -46.8213  -27.5503    7.4251 O.2       1 UNK        -0.5238 
     82 H82       -42.8073  -30.5215    7.6001 H         1 UNK         0.0889 
     83 H83       -42.2705  -29.1125    6.6846 H         1 UNK         0.0889 
     84 H84       -42.3778  -30.6880    5.8971 H         1 UNK         0.0889 
     85 H85       -45.0011  -30.5009    7.9363 H         1 UNK         0.3028 
     86 H86       -46.9825  -30.4801    5.9929 H         1 UNK         0.0864 
     87 H87       -47.2221  -29.8607    8.9847 H         1 UNK         0.0720 
     88 H88       -47.2141  -31.4484    8.2734 H         1 UNK         0.0720 
     89 H89       -49.4383  -29.2553    9.9848 H         1 UNK         0.0814 
     90 H90       -49.1903  -28.1131    8.6877 H         1 UNK         0.0814 
     91 H91       -51.0815  -27.0973    7.5427 H         1 UNK         0.1469 
     92 H92       -55.0373  -27.9654    8.9517 H         1 UNK         0.1381 
     93 H93       -51.7153  -30.2933   10.3329 H         1 UNK         0.1206 
     94 H94       -54.0366  -31.0690   10.6772 H         1 UNK         0.0813 
     95 H95       -55.3991  -30.1273   10.1335 H         1 UNK         0.0813 
     96 H96       -54.8661  -27.0698   11.6079 H         1 UNK         0.0638 
     97 H97       -56.2223  -28.0374   11.0992 H         1 UNK         0.0638 
     98 H98       -56.9333  -26.4709   12.7738 H         1 UNK         0.0568 
     99 H99       -56.4214  -29.1069   15.1454 H         1 UNK         0.3450 
    100 H100      -58.0531  -29.7091   14.9463 H         1 UNK         0.3450 
    101 H101      -54.9905  -27.6214   14.7167 H         1 UNK         0.2987 
    102 H102      -53.5034  -25.2577   15.4621 H         1 UNK         0.0766 
    103 H103      -54.1103  -23.8626   17.4465 H         1 UNK         0.0798 
    104 H104      -54.7621  -23.1836   15.9688 H         1 UNK         0.0798 
    105 H105      -55.8230  -24.0482   17.0658 H         1 UNK         0.0798 
    106 H106      -53.5107  -26.9505   16.8396 H         1 UNK         0.3198 
    107 H107      -54.7757  -27.9501   19.3540 H         1 UNK         0.0843 
    108 H108      -57.1182  -28.6778   19.0713 H         1 UNK         0.0831 
    109 H109      -56.0755  -30.0869   19.1369 H         1 UNK         0.0831 
    110 H110      -56.7197  -29.5356   17.5915 H         1 UNK         0.0831 
    111 H111      -53.1739  -29.1887   18.4603 H         1 UNK         0.3133 
    112 H112      -51.8969  -30.3022   17.1703 H         1 UNK         0.0566 
    113 H113      -53.3085  -31.7281   14.8529 H         1 UNK         0.0814 
    114 H114      -53.3280  -32.2630   16.5271 H         1 UNK         0.0814 
    115 H115      -51.8137  -32.2402   15.6390 H         1 UNK         0.0814 
    116 H116      -51.3901  -30.1142   14.4790 H         1 UNK         0.3091 
    117 H117      -49.5827  -28.3140   14.1198 H         1 UNK         0.0702 
    118 H118      -51.2559  -29.1529   12.5338 H         1 UNK         0.0785 
    119 H119      -50.5950  -27.6659   11.8813 H         1 UNK         0.0785 
    120 H120      -52.1844  -27.6685   12.6363 H         1 UNK         0.0785 
    121 H121      -50.8967  -25.7385   13.6352 H         1 UNK         0.2998 
    122 H122      -49.2286  -23.9063   15.9250 H         1 UNK         0.0697 
    123 H123      -47.6698  -24.1734   13.3001 H         1 UNK         0.0825 
    124 H124      -47.0046  -24.1839   14.9238 H         1 UNK         0.0825 
    125 H125      -47.7314  -22.7163   14.2919 H         1 UNK         0.0825 
    126 H126      -50.1297  -23.5985   13.1096 H         1 UNK         0.3029 
    127 H127      -53.4369  -22.9536   14.0207 H         1 UNK         0.0897 
    128 H128      -53.2991  -20.6325   13.1435 H         1 UNK         0.0792 
    129 H129      -52.6550  -20.7022   14.7740 H         1 UNK         0.0792 
    130 H130      -51.5538  -20.6096   13.4069 H         1 UNK         0.0792 
    131 H131      -52.0086  -22.2786   11.6367 H         1 UNK         0.3086 
    132 H132      -51.6994  -25.5190   10.2977 H         1 UNK         0.0583 
    133 H133      -54.0789  -25.1600    9.7555 H         1 UNK         0.1020 
    134 H134      -53.8281  -23.4472    9.5492 H         1 UNK         0.1020 
    135 H135      -54.7640  -26.2001    7.4214 H         1 UNK         0.0694 
    136 H136      -53.5039  -26.5102    6.2534 H         1 UNK         0.0694 
    137 H137      -51.2316  -23.0277    9.0954 H         1 UNK         0.2989 
    138 H138      -49.1514  -22.2576    8.8026 H         1 UNK         0.1055 
    139 H139      -48.1150  -20.5145   10.2700 H         1 UNK         0.0806 
    140 H140      -48.4444  -21.4957   11.6980 H         1 UNK         0.0806 
    141 H141      -49.7709  -20.8252   10.7591 H         1 UNK         0.0806 
    142 H142      -46.7873  -22.7837   10.3968 H         1 UNK         0.3061 
    143 H143      -44.9878  -23.6910    9.1615 H         1 UNK         0.0734 
    144 H144      -45.8161  -25.1616   10.9939 H         1 UNK         0.0832 
    145 H145      -46.2290  -26.4208    9.8410 H         1 UNK         0.0832 
    146 H146      -44.5420  -25.9825   10.1056 H         1 UNK         0.0832 
    147 H147      -45.7557  -25.9829    7.4075 H         1 UNK         0.3156 
    148 H148      -44.2788  -24.5174    4.5760 H         1 UNK         0.0589 
    149 H149      -42.9915  -26.8267    6.1262 H         1 UNK         0.0808 
    150 H150      -42.8792  -26.5893    4.3821 H         1 UNK         0.0808 
    151 H151      -42.1576  -25.4221    5.4796 H         1 UNK         0.0808 
    152 H152      -45.2800  -27.1641    5.1563 H         1 UNK         0.3098 
    153 H153      -48.6200  -26.4125    5.4495 H         1 UNK         0.0720 
    154 H154      -49.2800  -27.6245    3.3855 H         1 UNK         0.0791 
    155 H155      -48.7310  -26.0089    2.9800 H         1 UNK         0.0791 
    156 H156      -47.6723  -27.3836    2.6976 H         1 UNK         0.0791 
    157 H157      -47.5610  -28.8948    4.6720 H         1 UNK         0.3028 
@<TRIPOS>BOND
     1    1    2 1    
     2    1   82 1    
     3    1   83 1    
     4    1   84 1    
     5    2    3 2    
     6    2    4 am   BACKBONE|DICT|INTERRES
     7    4    5 1    
     8    4   85 1    
     9    5    6 1    
    10    5   80 1    
    11    5   86 1    
    12    6    7 1    
    13    6   87 1    
    14    6   88 1    
    15    7    8 1    
    16    8    9 1    
    17    8   89 1    
    18    8   90 1    
    19    9   10 ar   
    20    9   14 ar   
    21   10   11 ar   
    22   10   91 1    
    23   11   12 ar   
    24   11   58 1    
    25   12   13 ar   
    26   12   92 1    
    27   13   14 ar   
    28   13   15 1    
    29   14   93 1    
    30   15   16 1    
    31   15   94 1    
    32   15   95 1    
    33   16   17 1    
    34   17   18 1    
    35   17   96 1    
    36   17   97 1    
    37   18   19 1    
    38   18   22 1    
    39   18   98 1    
    40   19   20 am   BACKBONE|DICT|INTERRES
    41   19   21 2    
    42   20   99 1    
    43   20  100 1    
    44   22   23 am   BACKBONE|DICT|INTERRES
    45   22  101 1    
    46   23   24 2    
    47   23   25 1    
    48   25   26 1    
    49   25   27 1    
    50   25  102 1    
    51   26  103 1    
    52   26  104 1    
    53   26  105 1    
    54   27   28 am   BACKBONE|DICT|INTERRES
    55   27  106 1    
    56   28   29 2    
    57   28   30 1    
    58   30   31 1    
    59   30   32 1    
    60   30  107 1    
    61   31  108 1    
    62   31  109 1    
    63   31  110 1    
    64   32   33 am   BACKBONE|DICT|INTERRES
    65   32  111 1    
    66   33   34 2    
    67   33   35 1    
    68   35   36 1    
    69   35   37 1    
    70   35  112 1    
    71   36  113 1    
    72   36  114 1    
    73   36  115 1    
    74   37   38 am   BACKBONE|DICT|INTERRES
    75   37  116 1    
    76   38   39 2    
    77   38   40 1    
    78   40   41 1    
    79   40   42 1    
    80   40  117 1    
    81   41  118 1    
    82   41  119 1    
    83   41  120 1    
    84   42   43 am   BACKBONE|DICT|INTERRES
    85   42  121 1    
    86   43   44 2    
    87   43   45 1    
    88   45   46 1    
    89   45   47 1    
    90   45  122 1    
    91   46  123 1    
    92   46  124 1    
    93   46  125 1    
    94   47   48 am   BACKBONE|DICT|INTERRES
    95   47  126 1    
    96   48   49 2    
    97   48   50 1    
    98   50   51 1    
    99   50   52 1    
   100   50  127 1    
   101   51  128 1    
   102   51  129 1    
   103   51  130 1    
   104   52   53 am   BACKBONE|DICT|INTERRES
   105   52  131 1    
   106   53   54 2    
   107   53   55 1    
   108   55   56 1    
   109   55   59 1    
   110   55  132 1    
   111   56   57 1    
   112   56  133 1    
   113   56  134 1    
   114   57   58 1    
   115   58  135 1    
   116   58  136 1    
   117   59   60 am   BACKBONE|DICT|INTERRES
   118   59  137 1    
   119   60   61 2    
   120   60   62 1    
   121   62   63 1    
   122   62   64 1    
   123   62  138 1    
   124   63  139 1    
   125   63  140 1    
   126   63  141 1    
   127   64   65 am   BACKBONE|DICT|INTERRES
   128   64  142 1    
   129   65   66 2    
   130   65   67 1    
   131   67   68 1    
   132   67   69 1    
   133   67  143 1    
   134   68  144 1    
   135   68  145 1    
   136   68  146 1    
   137   69   70 am   BACKBONE|DICT|INTERRES
   138   69  147 1    
   139   70   71 2    
   140   70   72 1    
   141   72   73 1    
   142   72   74 1    
   143   72  148 1    
   144   73  149 1    
   145   73  150 1    
   146   73  151 1    
   147   74   75 am   BACKBONE|DICT|INTERRES
   148   74  152 1    
   149   75   76 2    
   150   75   77 1    
   151   77   78 1    
   152   77   79 1    
   153   77  153 1    
   154   78  154 1    
   155   78  155 1    
   156   78  156 1    
   157   79   80 am   BACKBONE|DICT|INTERRES
   158   79  157 1    
   159   80   81 2    
@<TRIPOS>SUBSTRUCTURE
     1 UNK         1 GROUP             0       ****    0 ROOT    
