@<TRIPOS>MOLECULE
3R207
157   159    1
SMALL
USER_CHARGES


@<TRIPOS>ATOM
      1 CA        -50.9198  -33.6267    8.9603 C.3       0 UNK        -0.1975 
      2 C         -50.0080  -32.7115    8.1571 C.2       0 UNK         0.4852 
      3 O         -48.7947  -32.9261    8.1349 O.2       0 UNK        -0.5216 
      4 N         -50.5826  -31.7085    7.4818 N.am      1 UNK        -0.4461 
      5 CA        -49.8555  -30.7077    6.6969 C.3       1 UNK         0.0864 
      6 C6        -50.7442  -30.1080    5.5700 C.3       14 UNK        -0.0898 
      7 S7        -52.2239  -29.2064    6.1549 S.3       14 UNK        -0.2598 
      8 C8        -51.6413  -27.4754    6.0479 C.3       14 UNK         0.0286 
      9 C9        -52.4731  -26.4918    6.8654 C.ar      14 UNK        -0.0844 
     10 C10       -52.7016  -25.2034    6.3733 C.ar      14 UNK        -0.0881 
     11 C11       -53.4145  -24.2685    7.1293 C.ar      14 UNK        -0.0643 
     12 C12       -53.9337  -24.6406    8.3728 C.ar      14 UNK        -0.0930 
     13 C13       -53.7144  -25.9240    8.8821 C.ar      14 UNK        -0.0827 
     14 C14       -52.9609  -26.8325    8.1320 C.ar      14 UNK        -0.1249 
     15 C15       -54.2461  -26.2836   10.2662 C.3       14 UNK         0.0141 
     16 S16       -55.0600  -27.9135   10.3666 S.3       14 UNK        -0.2313 
     17 C17       -53.6667  -29.0202   10.7846 C.3       14 UNK        -0.0915 
     18 CA        -54.0024  -30.0083   11.9341 C.3       13 UNK         0.0968 
     19 C         -52.8998  -31.0929   12.1128 C.2       13 UNK         0.5732 
     20 N         -52.4573  -31.4209   13.3217 N.am      13 UNK        -0.7310 
     21 O         -52.4478  -31.6746   11.1313 O.2       13 UNK        -0.5035 
     22 N         -54.3393  -29.3148   13.1888 N.am      13 UNK        -0.4233 
     23 C         -55.3498  -29.6686   13.9937 C.2       13 UNK         0.4989 
     24 O         -56.1634  -30.5531   13.7192 O.2       13 UNK        -0.4996 
     25 CA        -55.4698  -28.9172   15.3362 C.3       12 UNK         0.0216 
     26 CB        -56.3935  -29.6349   16.3435 C.3       12 UNK        -0.1964 
     27 N         -54.1789  -28.6106   15.9645 N.am      12 UNK        -0.4276 
     28 C         -53.2005  -29.4714   16.2930 C.2       12 UNK         0.5020 
     29 O         -53.2656  -30.6830   16.0813 O.2       12 UNK        -0.5489 
     30 CA        -51.9198  -28.8933   16.9287 C.3       11 UNK         0.0294 
     31 CB        -50.6581  -29.4898   16.2778 C.3       11 UNK        -0.2019 
     32 N         -51.8666  -27.4374   16.7971 N.am      11 UNK        -0.4493 
     33 C         -52.1383  -26.5516   17.7653 C.2       11 UNK         0.4932 
     34 O         -52.3697  -26.8617   18.9337 O.2       11 UNK        -0.5029 
     35 CA        -52.1960  -25.0661   17.3560 C.3       10 UNK         0.0280 
     36 CB        -50.8779  -24.3612   17.7117 C.3       10 UNK        -0.1976 
     37 N         -52.4886  -24.8690   15.9308 N.am      10 UNK        -0.4242 
     38 C         -53.6545  -25.1942   15.3466 C.2       10 UNK         0.5072 
     39 O         -54.6255  -25.6239   15.9688 O.2       10 UNK        -0.5224 
     40 CA        -53.7382  -25.1146   13.8108 C.3       9 UNK         0.0343 
     41 CB        -54.3252  -23.7646   13.3731 C.3       9 UNK        -0.2003 
     42 N         -52.4482  -25.3201   13.1501 N.am      9 UNK        -0.4272 
     43 C         -51.6922  -26.4255   13.2521 C.2       9 UNK         0.4988 
     44 O         -52.0856  -27.4541   13.8025 O.2       9 UNK        -0.5108 
     45 CA        -50.2557  -26.3792   12.6889 C.3       8 UNK         0.0248 
     46 CB        -50.1920  -27.1667   11.3705 C.3       8 UNK        -0.2001 
     47 N         -49.7322  -25.0279   12.4567 N.am      8 UNK        -0.4140 
     48 C         -49.6997  -24.0138   13.3373 C.2       8 UNK         0.5028 
     49 O         -49.9582  -24.1421   14.5348 O.2       8 UNK        -0.5428 
     50 CA        -49.4746  -22.5964   12.7701 C.3       7 UNK         0.0264 
     51 CB        -48.0916  -22.0559   13.1569 C.3       7 UNK        -0.1988 
     52 N         -49.6646  -22.4967   11.3149 N.am      7 UNK        -0.4454 
     53 C         -50.8165  -22.7631   10.6730 C.2       7 UNK         0.5027 
     54 O         -51.8557  -23.0518   11.2689 O.2       7 UNK        -0.5083 
     55 CA        -50.8270  -22.7666    9.1278 C.3       6 UNK         0.0844 
     56 C56       -51.8709  -21.7580    8.5818 C.3       14 UNK        -0.0967 
     57 S57       -52.0723  -21.8660    6.7688 S.3       14 UNK        -0.2604 
     58 C58       -53.6005  -22.8494    6.6114 C.3       14 UNK         0.0134 
     59 N         -49.5066  -22.5732    8.5196 N.am      6 UNK        -0.4116 
     60 C         -48.4922  -23.4475    8.5326 C.2       5 UNK         0.5034 
     61 O         -48.5251  -24.5368    9.1145 O.2       5 UNK        -0.5045 
     62 CA        -47.2127  -23.0397    7.7745 C.3       5 UNK         0.0224 
     63 CB        -47.2060  -21.5846    7.2477 C.3       5 UNK        -0.1978 
     64 N         -46.0169  -23.3152    8.5785 N.am      5 UNK        -0.4737 
     65 C         -45.6968  -22.7716    9.7633 C.2       4 UNK         0.5027 
     66 O         -46.3290  -21.8604   10.3001 O.2       4 UNK        -0.5211 
     67 CA        -44.4851  -23.4140   10.4684 C.3       4 UNK         0.0297 
     68 CB        -44.1533  -22.7786   11.8358 C.3       4 UNK        -0.1993 
     69 N         -44.6590  -24.8708   10.5712 N.am      4 UNK        -0.4486 
     70 C         -45.6409  -25.5141   11.2206 C.2       3 UNK         0.4961 
     71 O         -46.4516  -24.9793   11.9745 O.2       3 UNK        -0.5105 
     72 CA        -45.8184  -26.9886   10.8617 C.3       3 UNK         0.0299 
     73 CB        -46.3714  -27.8309   12.0282 C.3       3 UNK        -0.1972 
     74 N         -46.7420  -27.0014    9.7331 N.am      3 UNK        -0.4305 
     75 C         -46.7995  -27.9363    8.7821 C.2       2 UNK         0.5006 
     76 O         -46.1029  -28.9538    8.7602 O.2       2 UNK        -0.5106 
     77 CA        -47.7536  -27.6300    7.6187 C.3       2 UNK         0.0296 
     78 CB        -47.0232  -26.8321    6.5262 C.3       2 UNK        -0.2002 
     79 N         -48.3264  -28.8327    7.0174 N.am      2 UNK        -0.4032 
     80 C         -49.2480  -29.6110    7.5993 C.2       1 UNK         0.5000 
     81 O         -49.6657  -29.4390    8.7481 O.2       1 UNK        -0.5238 
     82 H82       -50.6597  -33.5775   10.0181 H         1 UNK         0.0889 
     83 H83       -50.8082  -34.6589    8.6273 H         1 UNK         0.0889 
     84 H84       -51.9691  -33.3471    8.8575 H         1 UNK         0.0889 
     85 H85       -51.5749  -31.5441    7.5752 H         1 UNK         0.3028 
     86 H86       -49.0188  -31.2140    6.2098 H         1 UNK         0.0864 
     87 H87       -51.0896  -30.9146    4.9212 H         1 UNK         0.0720 
     88 H88       -50.1569  -29.4560    4.9208 H         1 UNK         0.0720 
     89 H89       -50.6131  -27.4017    6.3976 H         1 UNK         0.0814 
     90 H90       -51.6304  -27.1841    4.9963 H         1 UNK         0.0814 
     91 H91       -52.3006  -24.9129    5.4117 H         1 UNK         0.1469 
     92 H92       -54.4866  -23.9184    8.9578 H         1 UNK         0.1381 
     93 H93       -52.7496  -27.8118    8.5330 H         1 UNK         0.1206 
     94 H94       -53.4187  -26.2431   10.9651 H         1 UNK         0.0813 
     95 H95       -54.9659  -25.5352   10.5994 H         1 UNK         0.0813 
     96 H96       -53.4125  -29.5679    9.8755 H         1 UNK         0.0638 
     97 H97       -52.7859  -28.4342   11.0421 H         1 UNK         0.0638 
     98 H98       -54.8749  -30.5708   11.5985 H         1 UNK         0.0568 
     99 H99       -52.8494  -31.0128   14.1629 H         1 UNK         0.3450 
    100 H100      -51.7503  -32.1331   13.3997 H         1 UNK         0.3450 
    101 H101      -53.6693  -28.6183   13.5000 H         1 UNK         0.2987 
    102 H102      -55.9278  -27.9561   15.0984 H         1 UNK         0.0766 
    103 H103      -56.4877  -29.0668   17.2690 H         1 UNK         0.0798 
    104 H104      -57.3985  -29.7577   15.9380 H         1 UNK         0.0798 
    105 H105      -56.0198  -30.6279   16.5959 H         1 UNK         0.0798 
    106 H106      -54.0332  -27.6281   16.1678 H         1 UNK         0.3198 
    107 H107      -51.9281  -29.1781   17.9828 H         1 UNK         0.0843 
    108 H108      -50.6274  -29.2981   15.2044 H         1 UNK         0.0831 
    109 H109      -50.6184  -30.5710   16.4157 H         1 UNK         0.0831 
    110 H110      -49.7509  -29.0765   16.7187 H         1 UNK         0.0831 
    111 H111      -51.7212  -27.0983   15.8532 H         1 UNK         0.3133 
    112 H112      -52.9982  -24.5969   17.9294 H         1 UNK         0.0566 
    113 H113      -50.0301  -24.8026   17.1861 H         1 UNK         0.0814 
    114 H114      -50.6721  -24.4346   18.7805 H         1 UNK         0.0814 
    115 H115      -50.9123  -23.3012   17.4599 H         1 UNK         0.0814 
    116 H116      -51.7153  -24.5476   15.3526 H         1 UNK         0.3091 
    117 H117      -54.4104  -25.9076   13.4763 H         1 UNK         0.0702 
    118 H118      -54.4607  -23.7211   12.2924 H         1 UNK         0.0785 
    119 H119      -53.6796  -22.9334   13.6600 H         1 UNK         0.0785 
    120 H120      -55.3015  -23.5953   13.8295 H         1 UNK         0.0785 
    121 H121      -52.0834  -24.5278   12.6298 H         1 UNK         0.2998 
    122 H122      -49.6028  -26.8601   13.4193 H         1 UNK         0.0697 
    123 H123      -50.8613  -26.7519   10.6152 H         1 UNK         0.0825 
    124 H124      -50.4724  -28.2099   11.5227 H         1 UNK         0.0825 
    125 H125      -49.1885  -27.1699   10.9507 H         1 UNK         0.0825 
    126 H126      -49.4565  -24.8158   11.5074 H         1 UNK         0.3029 
    127 H127      -50.2249  -21.9541   13.2361 H         1 UNK         0.0897 
    128 H128      -47.9620  -21.0223   12.8360 H         1 UNK         0.0792 
    129 H129      -47.9486  -22.0826   14.2379 H         1 UNK         0.0792 
    130 H130      -47.2952  -22.6468   12.7092 H         1 UNK         0.0792 
    131 H131      -48.8396  -22.2870   10.7677 H         1 UNK         0.3086 
    132 H132      -51.1555  -23.7686    8.8448 H         1 UNK         0.0583 
    133 H133      -52.8442  -21.9109    9.0522 H         1 UNK         0.1020 
    134 H134      -51.5794  -20.7365    8.8330 H         1 UNK         0.1020 
    135 H135      -54.4139  -22.3456    7.1362 H         1 UNK         0.0694 
    136 H136      -53.8913  -22.8836    5.5604 H         1 UNK         0.0694 
    137 H137      -49.3816  -21.7079    8.0153 H         1 UNK         0.2989 
    138 H138      -47.1640  -23.6942    6.9040 H         1 UNK         0.1055 
    139 H139      -46.2706  -21.3620    6.7342 H         1 UNK         0.0806 
    140 H140      -47.3210  -20.8515    8.0469 H         1 UNK         0.0806 
    141 H141      -48.0061  -21.4192    6.5248 H         1 UNK         0.0806 
    142 H142      -45.4362  -24.0704    8.2439 H         1 UNK         0.3061 
    143 H143      -43.6264  -23.2454    9.8167 H         1 UNK         0.0734 
    144 H144      -43.9622  -21.7103   11.7303 H         1 UNK         0.0832 
    145 H145      -44.9661  -22.8904   12.5518 H         1 UNK         0.0832 
    146 H146      -43.2611  -23.2261   12.2730 H         1 UNK         0.0832 
    147 H147      -44.0549  -25.4209    9.9763 H         1 UNK         0.3156 
    148 H148      -44.8532  -27.3990   10.5567 H         1 UNK         0.0589 
    149 H149      -47.3232  -27.4479   12.3956 H         1 UNK         0.0808 
    150 H150      -46.5214  -28.8692   11.7325 H         1 UNK         0.0808 
    151 H151      -45.6765  -27.8286   12.8684 H         1 UNK         0.0808 
    152 H152      -47.3313  -26.1762    9.6471 H         1 UNK         0.3098 
    153 H153      -48.5778  -27.0229    8.0003 H         1 UNK         0.0720 
    154 H154      -47.7144  -26.4870    5.7569 H         1 UNK         0.0791 
    155 H155      -46.5357  -25.9518    6.9433 H         1 UNK         0.0791 
    156 H156      -46.2480  -27.4277    6.0422 H         1 UNK         0.0791 
    157 H157      -48.0078  -29.0630    6.0878 H         1 UNK         0.3028 
@<TRIPOS>BOND
     1    1    2 1    
     2    1   82 1    
     3    1   83 1    
     4    1   84 1    
     5    2    3 2    
     6    2    4 am   BACKBONE|DICT|INTERRES
     7    4    5 1    
     8    4   85 1    
     9    5    6 1    
    10    5   80 1    
    11    5   86 1    
    12    6    7 1    
    13    6   87 1    
    14    6   88 1    
    15    7    8 1    
    16    8    9 1    
    17    8   89 1    
    18    8   90 1    
    19    9   10 ar   
    20    9   14 ar   
    21   10   11 ar   
    22   10   91 1    
    23   11   12 ar   
    24   11   58 1    
    25   12   13 ar   
    26   12   92 1    
    27   13   14 ar   
    28   13   15 1    
    29   14   93 1    
    30   15   16 1    
    31   15   94 1    
    32   15   95 1    
    33   16   17 1    
    34   17   18 1    
    35   17   96 1    
    36   17   97 1    
    37   18   19 1    
    38   18   22 1    
    39   18   98 1    
    40   19   20 am   BACKBONE|DICT|INTERRES
    41   19   21 2    
    42   20   99 1    
    43   20  100 1    
    44   22   23 am   BACKBONE|DICT|INTERRES
    45   22  101 1    
    46   23   24 2    
    47   23   25 1    
    48   25   26 1    
    49   25   27 1    
    50   25  102 1    
    51   26  103 1    
    52   26  104 1    
    53   26  105 1    
    54   27   28 am   BACKBONE|DICT|INTERRES
    55   27  106 1    
    56   28   29 2    
    57   28   30 1    
    58   30   31 1    
    59   30   32 1    
    60   30  107 1    
    61   31  108 1    
    62   31  109 1    
    63   31  110 1    
    64   32   33 am   BACKBONE|DICT|INTERRES
    65   32  111 1    
    66   33   34 2    
    67   33   35 1    
    68   35   36 1    
    69   35   37 1    
    70   35  112 1    
    71   36  113 1    
    72   36  114 1    
    73   36  115 1    
    74   37   38 am   BACKBONE|DICT|INTERRES
    75   37  116 1    
    76   38   39 2    
    77   38   40 1    
    78   40   41 1    
    79   40   42 1    
    80   40  117 1    
    81   41  118 1    
    82   41  119 1    
    83   41  120 1    
    84   42   43 am   BACKBONE|DICT|INTERRES
    85   42  121 1    
    86   43   44 2    
    87   43   45 1    
    88   45   46 1    
    89   45   47 1    
    90   45  122 1    
    91   46  123 1    
    92   46  124 1    
    93   46  125 1    
    94   47   48 am   BACKBONE|DICT|INTERRES
    95   47  126 1    
    96   48   49 2    
    97   48   50 1    
    98   50   51 1    
    99   50   52 1    
   100   50  127 1    
   101   51  128 1    
   102   51  129 1    
   103   51  130 1    
   104   52   53 am   BACKBONE|DICT|INTERRES
   105   52  131 1    
   106   53   54 2    
   107   53   55 1    
   108   55   56 1    
   109   55   59 1    
   110   55  132 1    
   111   56   57 1    
   112   56  133 1    
   113   56  134 1    
   114   57   58 1    
   115   58  135 1    
   116   58  136 1    
   117   59   60 am   BACKBONE|DICT|INTERRES
   118   59  137 1    
   119   60   61 2    
   120   60   62 1    
   121   62   63 1    
   122   62   64 1    
   123   62  138 1    
   124   63  139 1    
   125   63  140 1    
   126   63  141 1    
   127   64   65 am   BACKBONE|DICT|INTERRES
   128   64  142 1    
   129   65   66 2    
   130   65   67 1    
   131   67   68 1    
   132   67   69 1    
   133   67  143 1    
   134   68  144 1    
   135   68  145 1    
   136   68  146 1    
   137   69   70 am   BACKBONE|DICT|INTERRES
   138   69  147 1    
   139   70   71 2    
   140   70   72 1    
   141   72   73 1    
   142   72   74 1    
   143   72  148 1    
   144   73  149 1    
   145   73  150 1    
   146   73  151 1    
   147   74   75 am   BACKBONE|DICT|INTERRES
   148   74  152 1    
   149   75   76 2    
   150   75   77 1    
   151   77   78 1    
   152   77   79 1    
   153   77  153 1    
   154   78  154 1    
   155   78  155 1    
   156   78  156 1    
   157   79   80 am   BACKBONE|DICT|INTERRES
   158   79  157 1    
   159   80   81 2    
@<TRIPOS>SUBSTRUCTURE
     1 UNK         1 GROUP             0       ****    0 ROOT    
