@<TRIPOS>MOLECULE
3R207
157   159    1
SMALL
USER_CHARGES


@<TRIPOS>ATOM
      1 CA        -47.8369  -22.5125    2.9648 C.3       0 UNK        -0.1975 
      2 C         -48.6171  -23.6727    3.5642 C.2       0 UNK         0.4852 
      3 O         -48.9636  -24.6119    2.8462 O.2       0 UNK        -0.5216 
      4 N         -48.8832  -23.6226    4.8774 N.am      1 UNK        -0.4461 
      5 CA        -49.6253  -24.6026    5.6862 C.3       1 UNK         0.0864 
      6 C6        -51.0790  -24.8362    5.1915 C.3       14 UNK        -0.0898 
      7 S7        -52.2210  -25.2280    6.5579 S.3       14 UNK        -0.2598 
      8 C8        -52.4107  -27.0287    6.3846 C.3       14 UNK         0.0286 
      9 C9        -52.3353  -27.7352    7.7304 C.ar      14 UNK        -0.0844 
     10 C10       -51.1645  -28.3936    8.1115 C.ar      14 UNK        -0.0881 
     11 C11       -51.1033  -29.1151    9.3066 C.ar      14 UNK        -0.0643 
     12 C12       -52.2231  -29.1511   10.1458 C.ar      14 UNK        -0.0930 
     13 C13       -53.4032  -28.4959    9.7740 C.ar      14 UNK        -0.0827 
     14 C14       -53.4501  -27.7839    8.5706 C.ar      14 UNK        -0.1249 
     15 C15       -54.6620  -28.6238   10.6172 C.3       14 UNK         0.0141 
     16 S16       -54.8242  -27.2797   11.8375 S.3       14 UNK        -0.2313 
     17 C17       -56.6426  -27.1606   11.9754 C.3       14 UNK        -0.0915 
     18 CA        -57.2409  -27.5700   13.3489 C.3       13 UNK         0.0968 
     19 C         -58.7862  -27.3785   13.2999 C.2       13 UNK         0.5732 
     20 N         -59.5733  -28.4268   13.0877 N.am      13 UNK        -0.7310 
     21 O         -59.2726  -26.2601   13.4489 O.2       13 UNK        -0.5035 
     22 N         -56.7715  -28.8937   13.8028 N.am      13 UNK        -0.4233 
     23 C         -57.1126  -29.4915   14.9551 C.2       13 UNK         0.4989 
     24 O         -57.9216  -29.0324   15.7621 O.2       13 UNK        -0.4996 
     25 CA        -56.3928  -30.8051   15.3050 C.3       12 UNK         0.0216 
     26 CB        -56.6129  -31.9133   14.2525 C.3       12 UNK        -0.1964 
     27 N         -54.9785  -30.5564   15.6067 N.am      12 UNK        -0.4276 
     28 C         -54.0097  -30.2094   14.7503 C.2       12 UNK         0.5020 
     29 O         -54.1135  -30.2702   13.5251 O.2       12 UNK        -0.5489 
     30 CA        -52.7436  -29.5984   15.3719 C.3       11 UNK         0.0294 
     31 CB        -51.4704  -30.1450   14.7056 C.3       11 UNK        -0.2019 
     32 N         -52.7731  -28.1414   15.2260 N.am      11 UNK        -0.4493 
     33 C         -53.6679  -27.3201   15.7946 C.2       11 UNK         0.4932 
     34 O         -54.5132  -27.6868   16.6131 O.2       11 UNK        -0.5029 
     35 CA        -53.5763  -25.8392   15.3864 C.3       10 UNK         0.0280 
     36 CB        -54.6540  -24.9530   16.0457 C.3       10 UNK        -0.1976 
     37 N         -52.2343  -25.2976   15.6105 N.am      10 UNK        -0.4242 
     38 C         -51.5653  -25.2075   16.7704 C.2       10 UNK         0.5072 
     39 O         -52.0379  -25.5072   17.8678 O.2       10 UNK        -0.5224 
     40 CA        -50.1056  -24.7189   16.7058 C.3       9 UNK         0.0343 
     41 CB        -49.1468  -25.8989   16.9361 C.3       9 UNK        -0.2003 
     42 N         -49.7594  -24.0615   15.4421 N.am      9 UNK        -0.4272 
     43 C         -50.1722  -22.8386   15.0790 C.2       9 UNK         0.4988 
     44 O         -50.8325  -22.0948   15.8049 O.2       9 UNK        -0.5108 
     45 CA        -49.8154  -22.3796   13.6546 C.3       8 UNK         0.0248 
     46 CB        -48.3770  -21.8407   13.6008 C.3       8 UNK        -0.2001 
     47 N         -49.9841  -23.4352   12.6513 N.am      8 UNK        -0.4140 
     48 C         -51.1504  -24.0189   12.3343 C.2       8 UNK         0.5028 
     49 O         -52.2308  -23.7099   12.8355 O.2       8 UNK        -0.5428 
     50 CA        -51.0945  -25.1748   11.3239 C.3       7 UNK         0.0264 
     51 CB        -50.9747  -24.6536    9.8848 C.3       7 UNK        -0.1988 
     52 N         -49.9846  -26.0819   11.6050 N.am      7 UNK        -0.4454 
     53 C         -49.9330  -26.9131   12.6538 C.2       7 UNK         0.5027 
     54 O         -50.8358  -27.0279   13.4831 O.2       7 UNK        -0.5083 
     55 CA        -48.6363  -27.7279   12.8316 C.3       6 UNK         0.0844 
     56 C56       -48.6824  -29.0656   12.0558 C.3       14 UNK        -0.0967 
     57 S57       -48.4901  -28.8892   10.2453 S.3       14 UNK        -0.2604 
     58 C58       -49.8528  -29.9226    9.6248 C.3       14 UNK         0.0134 
     59 N         -47.4343  -26.9519   12.5158 N.am      6 UNK        -0.4116 
     60 C         -47.0086  -25.8778   13.1929 C.2       5 UNK         0.5034 
     61 O         -47.5657  -25.4294   14.1929 O.2       5 UNK        -0.5045 
     62 CA        -45.7816  -25.1491   12.6228 C.3       5 UNK         0.0224 
     63 CB        -44.4830  -25.8428   13.0628 C.3       5 UNK        -0.1978 
     64 N         -45.8078  -25.0389   11.1615 N.am      5 UNK        -0.4737 
     65 C         -46.7562  -24.4162   10.4521 C.2       4 UNK         0.5027 
     66 O         -47.7268  -23.8595   10.9630 O.2       4 UNK        -0.5211 
     67 CA        -46.6357  -24.4428    8.9215 C.3       4 UNK         0.0297 
     68 CB        -45.7493  -23.2934    8.4070 C.3       4 UNK        -0.1993 
     69 N         -46.2307  -25.7401    8.3619 N.am      4 UNK        -0.4486 
     70 C         -45.0480  -26.3715    8.4368 C.2       3 UNK         0.4961 
     71 O         -44.0886  -25.9456    9.0808 O.2       3 UNK        -0.5105 
     72 CA        -44.9027  -27.7171    7.6969 C.3       3 UNK         0.0299 
     73 CB        -44.7971  -28.8770    8.7007 C.3       3 UNK        -0.1972 
     74 N         -45.9944  -27.9915    6.7580 N.am      3 UNK        -0.4305 
     75 C         -46.1493  -27.3935    5.5683 C.2       2 UNK         0.5006 
     76 O         -45.3376  -26.6002    5.0896 O.2       2 UNK        -0.5106 
     77 CA        -47.4462  -27.6898    4.7907 C.3       2 UNK         0.0296 
     78 CB        -48.1782  -28.9741    5.2434 C.3       2 UNK        -0.2002 
     79 N         -48.3431  -26.5288    4.8251 N.am      2 UNK        -0.4032 
     80 C         -48.8516  -25.9218    5.9077 C.2       1 UNK         0.5000 
     81 O         -48.6897  -26.3371    7.0560 O.2       1 UNK        -0.5238 
     82 H82       -46.9028  -22.8722    2.5339 H         1 UNK         0.0889 
     83 H83       -47.5971  -21.7530    3.7088 H         1 UNK         0.0889 
     84 H84       -48.4179  -22.0400    2.1732 H         1 UNK         0.0889 
     85 H85       -48.5408  -22.8280    5.4003 H         1 UNK         0.3028 
     86 H86       -49.6865  -24.1293    6.6681 H         1 UNK         0.0864 
     87 H87       -51.1286  -25.5928    4.4064 H         1 UNK         0.0720 
     88 H88       -51.4615  -23.9223    4.7342 H         1 UNK         0.0720 
     89 H89       -51.6469  -27.4300    5.7171 H         1 UNK         0.0814 
     90 H90       -53.3687  -27.2407    5.9077 H         1 UNK         0.0814 
     91 H91       -50.3031  -28.3685    7.4621 H         1 UNK         0.1469 
     92 H92       -52.1943  -29.7196   11.0656 H         1 UNK         0.1381 
     93 H93       -54.3645  -27.2888    8.2731 H         1 UNK         0.1206 
     94 H94       -54.6784  -29.5862   11.1279 H         1 UNK         0.0813 
     95 H95       -55.5218  -28.6319    9.9467 H         1 UNK         0.0813 
     96 H96       -57.1102  -27.7462   11.1828 H         1 UNK         0.0638 
     97 H97       -56.9004  -26.1223   11.7576 H         1 UNK         0.0638 
     98 H98       -56.8703  -26.8592   14.0895 H         1 UNK         0.0568 
     99 H99       -60.5720  -28.2965   13.0581 H         1 UNK         0.3450 
    100 H100      -59.1792  -29.3456   12.9669 H         1 UNK         0.3450 
    101 H101      -56.0273  -29.3157   13.2595 H         1 UNK         0.2987 
    102 H102      -56.8302  -31.1648   16.2380 H         1 UNK         0.0766 
    103 H103      -56.0980  -32.8316   14.5344 H         1 UNK         0.0798 
    104 H104      -56.2659  -31.6294   13.2591 H         1 UNK         0.0798 
    105 H105      -57.6734  -32.1517   14.1631 H         1 UNK         0.0798 
    106 H106      -54.7877  -30.4022   16.5881 H         1 UNK         0.3198 
    107 H107      -52.7062  -29.8390   16.4363 H         1 UNK         0.0843 
    108 H108      -51.4600  -29.9307   13.6369 H         1 UNK         0.0831 
    109 H109      -51.4032  -31.2273   14.8222 H         1 UNK         0.0831 
    110 H110      -50.5720  -29.7109   15.1447 H         1 UNK         0.0831 
    111 H111      -52.1129  -27.7412   14.5597 H         1 UNK         0.3133 
    112 H112      -53.7395  -25.8050   14.3085 H         1 UNK         0.0566 
    113 H113      -55.6543  -25.3083   15.7960 H         1 UNK         0.0814 
    114 H114      -54.5726  -24.9519   17.1330 H         1 UNK         0.0814 
    115 H115      -54.5804  -23.9213   15.7018 H         1 UNK         0.0814 
    116 H116      -51.7380  -25.0365   14.7684 H         1 UNK         0.3091 
    117 H117      -49.9644  -24.0001   17.5156 H         1 UNK         0.0702 
    118 H118      -48.1083  -25.5680   16.9586 H         1 UNK         0.0785 
    119 H119      -49.2424  -26.6516   16.1521 H         1 UNK         0.0785 
    120 H120      -49.3504  -26.3909   17.8881 H         1 UNK         0.0785 
    121 H121      -49.1440  -24.5788   14.8186 H         1 UNK         0.2998 
    122 H122      -50.4934  -21.5657   13.3898 H         1 UNK         0.0697 
    123 H123      -47.6469  -22.6146   13.8390 H         1 UNK         0.0825 
    124 H124      -48.2371  -21.0280   14.3148 H         1 UNK         0.0825 
    125 H125      -48.1369  -21.4494   12.6119 H         1 UNK         0.0825 
    126 H126      -49.1483  -23.7170   12.1416 H         1 UNK         0.3029 
    127 H127      -52.0238  -25.7444   11.4035 H         1 UNK         0.0897 
    128 H128      -51.8544  -24.0714    9.6086 H         1 UNK         0.0792 
    129 H129      -50.8958  -25.4797    9.1780 H         1 UNK         0.0792 
    130 H130      -50.1024  -24.0147    9.7472 H         1 UNK         0.0792 
    131 H131      -49.1962  -26.0483   10.9756 H         1 UNK         0.3086 
    132 H132      -48.5774  -27.9765   13.8937 H         1 UNK         0.0583 
    133 H133      -47.8779  -29.7128   12.4084 H         1 UNK         0.1020 
    134 H134      -49.6024  -29.6035   12.2858 H         1 UNK         0.1020 
    135 H135      -49.5134  -30.4172    8.7134 H         1 UNK         0.0694 
    136 H136      -50.0756  -30.7269   10.3272 H         1 UNK         0.0694 
    137 H137      -46.9281  -27.2342   11.6895 H         1 UNK         0.2989 
    138 H138      -45.7854  -24.1360   13.0304 H         1 UNK         0.1055 
    139 H139      -44.4343  -25.9274   14.1495 H         1 UNK         0.0806 
    140 H140      -43.6059  -25.2794   12.7437 H         1 UNK         0.0806 
    141 H141      -44.4011  -26.8499   12.6520 H         1 UNK         0.0806 
    142 H142      -45.0351  -25.4462   10.6398 H         1 UNK         0.3061 
    143 H143      -47.6415  -24.2673    8.5371 H         1 UNK         0.0734 
    144 H144      -45.7223  -23.2717    7.3176 H         1 UNK         0.0832 
    145 H145      -46.1333  -22.3290    8.7422 H         1 UNK         0.0832 
    146 H146      -44.7234  -23.3740    8.7670 H         1 UNK         0.0832 
    147 H147      -46.9790  -26.2083    7.8540 H         1 UNK         0.3156 
    148 H148      -43.9688  -27.6744    7.1326 H         1 UNK         0.0589 
    149 H149      -45.6971  -28.9722    9.3071 H         1 UNK         0.0808 
    150 H150      -44.6314  -29.8277    8.1935 H         1 UNK         0.0808 
    151 H151      -43.9600  -28.7275    9.3842 H         1 UNK         0.0808 
    152 H152      -46.7282  -28.6056    7.0815 H         1 UNK         0.3098 
    153 H153      -47.1576  -27.8257    3.7474 H         1 UNK         0.0720 
    154 H154      -49.0675  -29.1501    4.6381 H         1 UNK         0.0791 
    155 H155      -48.4937  -28.9337    6.2847 H         1 UNK         0.0791 
    156 H156      -47.5361  -29.8485    5.1293 H         1 UNK         0.0791 
    157 H157      -48.5017  -26.0598    3.9354 H         1 UNK         0.3028 
@<TRIPOS>BOND
     1    1    2 1    
     2    1   82 1    
     3    1   83 1    
     4    1   84 1    
     5    2    3 2    
     6    2    4 am   BACKBONE|DICT|INTERRES
     7    4    5 1    
     8    4   85 1    
     9    5    6 1    
    10    5   80 1    
    11    5   86 1    
    12    6    7 1    
    13    6   87 1    
    14    6   88 1    
    15    7    8 1    
    16    8    9 1    
    17    8   89 1    
    18    8   90 1    
    19    9   10 ar   
    20    9   14 ar   
    21   10   11 ar   
    22   10   91 1    
    23   11   12 ar   
    24   11   58 1    
    25   12   13 ar   
    26   12   92 1    
    27   13   14 ar   
    28   13   15 1    
    29   14   93 1    
    30   15   16 1    
    31   15   94 1    
    32   15   95 1    
    33   16   17 1    
    34   17   18 1    
    35   17   96 1    
    36   17   97 1    
    37   18   19 1    
    38   18   22 1    
    39   18   98 1    
    40   19   20 am   BACKBONE|DICT|INTERRES
    41   19   21 2    
    42   20   99 1    
    43   20  100 1    
    44   22   23 am   BACKBONE|DICT|INTERRES
    45   22  101 1    
    46   23   24 2    
    47   23   25 1    
    48   25   26 1    
    49   25   27 1    
    50   25  102 1    
    51   26  103 1    
    52   26  104 1    
    53   26  105 1    
    54   27   28 am   BACKBONE|DICT|INTERRES
    55   27  106 1    
    56   28   29 2    
    57   28   30 1    
    58   30   31 1    
    59   30   32 1    
    60   30  107 1    
    61   31  108 1    
    62   31  109 1    
    63   31  110 1    
    64   32   33 am   BACKBONE|DICT|INTERRES
    65   32  111 1    
    66   33   34 2    
    67   33   35 1    
    68   35   36 1    
    69   35   37 1    
    70   35  112 1    
    71   36  113 1    
    72   36  114 1    
    73   36  115 1    
    74   37   38 am   BACKBONE|DICT|INTERRES
    75   37  116 1    
    76   38   39 2    
    77   38   40 1    
    78   40   41 1    
    79   40   42 1    
    80   40  117 1    
    81   41  118 1    
    82   41  119 1    
    83   41  120 1    
    84   42   43 am   BACKBONE|DICT|INTERRES
    85   42  121 1    
    86   43   44 2    
    87   43   45 1    
    88   45   46 1    
    89   45   47 1    
    90   45  122 1    
    91   46  123 1    
    92   46  124 1    
    93   46  125 1    
    94   47   48 am   BACKBONE|DICT|INTERRES
    95   47  126 1    
    96   48   49 2    
    97   48   50 1    
    98   50   51 1    
    99   50   52 1    
   100   50  127 1    
   101   51  128 1    
   102   51  129 1    
   103   51  130 1    
   104   52   53 am   BACKBONE|DICT|INTERRES
   105   52  131 1    
   106   53   54 2    
   107   53   55 1    
   108   55   56 1    
   109   55   59 1    
   110   55  132 1    
   111   56   57 1    
   112   56  133 1    
   113   56  134 1    
   114   57   58 1    
   115   58  135 1    
   116   58  136 1    
   117   59   60 am   BACKBONE|DICT|INTERRES
   118   59  137 1    
   119   60   61 2    
   120   60   62 1    
   121   62   63 1    
   122   62   64 1    
   123   62  138 1    
   124   63  139 1    
   125   63  140 1    
   126   63  141 1    
   127   64   65 am   BACKBONE|DICT|INTERRES
   128   64  142 1    
   129   65   66 2    
   130   65   67 1    
   131   67   68 1    
   132   67   69 1    
   133   67  143 1    
   134   68  144 1    
   135   68  145 1    
   136   68  146 1    
   137   69   70 am   BACKBONE|DICT|INTERRES
   138   69  147 1    
   139   70   71 2    
   140   70   72 1    
   141   72   73 1    
   142   72   74 1    
   143   72  148 1    
   144   73  149 1    
   145   73  150 1    
   146   73  151 1    
   147   74   75 am   BACKBONE|DICT|INTERRES
   148   74  152 1    
   149   75   76 2    
   150   75   77 1    
   151   77   78 1    
   152   77   79 1    
   153   77  153 1    
   154   78  154 1    
   155   78  155 1    
   156   78  156 1    
   157   79   80 am   BACKBONE|DICT|INTERRES
   158   79  157 1    
   159   80   81 2    
@<TRIPOS>SUBSTRUCTURE
     1 UNK         1 GROUP             0       ****    0 ROOT    
