@<TRIPOS>MOLECULE
3R207
157   159    1
SMALL
USER_CHARGES


@<TRIPOS>ATOM
      1 CA        -50.8322  -32.2923    8.3590 C.3       0 UNK        -0.1975 
      2 C         -49.7569  -31.3739    7.7980 C.2       0 UNK         0.4852 
      3 O         -48.6961  -31.8485    7.3909 O.2       0 UNK        -0.5216 
      4 N         -50.0250  -30.0616    7.7745 N.am      1 UNK        -0.4461 
      5 CA        -49.1168  -29.0240    7.2675 C.3       1 UNK         0.0864 
      6 C6        -49.8803  -27.7077    6.9879 C.3       14 UNK        -0.0898 
      7 S7        -50.8483  -27.7528    5.4442 S.3       14 UNK        -0.2598 
      8 C8        -52.5225  -28.2037    6.0050 C.3       14 UNK         0.0286 
      9 C9        -53.1942  -27.1326    6.8573 C.ar      14 UNK        -0.0844 
     10 C10       -53.4700  -25.8674    6.3285 C.ar      14 UNK        -0.0881 
     11 C11       -54.1395  -24.9074    7.0943 C.ar      14 UNK        -0.0643 
     12 C12       -54.5487  -25.2286    8.3927 C.ar      14 UNK        -0.0930 
     13 C13       -54.2913  -26.4930    8.9342 C.ar      14 UNK        -0.0827 
     14 C14       -53.5969  -27.4317    8.1618 C.ar      14 UNK        -0.1249 
     15 C15       -54.7512  -26.8012   10.3596 C.3       14 UNK         0.0141 
     16 S16       -55.4378  -28.4758   10.6078 S.3       14 UNK        -0.2313 
     17 C17       -53.9410  -29.4626   10.9624 C.3       14 UNK        -0.0915 
     18 CA        -54.0614  -30.3385   12.2386 C.3       13 UNK         0.0968 
     19 C         -52.8616  -31.3234   12.3817 C.2       13 UNK         0.5732 
     20 N         -52.2790  -31.5178   13.5596 N.am      13 UNK        -0.7310 
     21 O         -52.4526  -31.9424   11.4017 O.2       13 UNK        -0.5035 
     22 N         -54.2911  -29.5315   13.4488 N.am      13 UNK        -0.4233 
     23 C         -55.1727  -29.8438   14.4094 C.2       13 UNK         0.4989 
     24 O         -55.9609  -30.7898   14.3341 O.2       13 UNK        -0.4996 
     25 CA        -55.1638  -28.9600   15.6749 C.3       12 UNK         0.0216 
     26 CB        -55.9334  -29.5925   16.8546 C.3       12 UNK        -0.1964 
     27 N         -53.8182  -28.5583   16.1053 N.am      12 UNK        -0.4276 
     28 C         -52.7742  -29.3560   16.3897 C.2       12 UNK         0.5020 
     29 O         -52.8230  -30.5849   16.3231 O.2       12 UNK        -0.5489 
     30 CA        -51.4385  -28.6853   16.7718 C.3       11 UNK         0.0294 
     31 CB        -50.2717  -29.2716   15.9525 C.3       11 UNK        -0.2019 
     32 N         -51.4779  -27.2388   16.5531 N.am      11 UNK        -0.4493 
     33 C         -51.6850  -26.3095   17.4965 C.2       11 UNK         0.4932 
     34 O         -51.7704  -26.5593   18.6988 O.2       11 UNK        -0.5029 
     35 CA        -51.8610  -24.8552   17.0150 C.3       10 UNK         0.0280 
     36 CB        -50.5453  -24.0763   17.1682 C.3       10 UNK        -0.1976 
     37 N         -52.3284  -24.7621   15.6262 N.am      10 UNK        -0.4242 
     38 C         -53.5467  -25.1508   15.2132 C.2       10 UNK         0.5072 
     39 O         -54.4205  -25.5616   15.9766 O.2       10 UNK        -0.5224 
     40 CA        -53.8200  -25.1731   13.6977 C.3       9 UNK         0.0343 
     41 CB        -54.4902  -23.8672   13.2464 C.3       9 UNK        -0.2003 
     42 N         -52.6151  -25.4041   12.8996 N.am      9 UNK        -0.4272 
     43 C         -51.8516  -26.5070   12.9650 C.2       9 UNK         0.4988 
     44 O         -52.1684  -27.5028   13.6154 O.2       9 UNK        -0.5108 
     45 CA        -50.5095  -26.5092   12.2076 C.3       8 UNK         0.0248 
     46 CB        -50.6583  -27.3415   10.9262 C.3       8 UNK        -0.2001 
     47 N         -50.0037  -25.1799   11.8487 N.am      8 UNK        -0.4140 
     48 C         -49.8346  -24.1353   12.6776 C.2       8 UNK         0.5028 
     49 O         -49.9644  -24.2072   13.9000 O.2       8 UNK        -0.5428 
     50 CA        -49.5838  -22.7556   12.0358 C.3       7 UNK         0.0264 
     51 CB        -48.1018  -22.3757   12.1599 C.3       7 UNK        -0.1988 
     52 N         -50.0113  -22.6762   10.6305 N.am      7 UNK        -0.4454 
     53 C         -51.2686  -22.8989   10.2024 C.2       7 UNK         0.5027 
     54 O         -52.2213  -23.0221   10.9742 O.2       7 UNK        -0.5083 
     55 CA        -51.5122  -23.1210    8.6910 C.3       6 UNK         0.0844 
     56 C56       -52.5611  -22.1360    8.1208 C.3       14 UNK        -0.0967 
     57 S57       -52.9592  -22.4854    6.3713 S.3       14 UNK        -0.2604 
     58 C58       -54.4445  -23.5334    6.5099 C.3       14 UNK         0.0134 
     59 N         -50.2898  -23.1768    7.8819 N.am      6 UNK        -0.4116 
     60 C         -49.3727  -24.1487    7.9539 C.2       5 UNK         0.5034 
     61 O         -49.4367  -25.0715    8.7659 O.2       5 UNK        -0.5045 
     62 CA        -48.1562  -24.0617    7.0099 C.3       5 UNK         0.0224 
     63 CB        -48.1971  -22.8718    6.0220 C.3       5 UNK        -0.1978 
     64 N         -46.9002  -24.0632    7.7699 N.am      5 UNK        -0.4737 
     65 C         -46.5459  -23.1757    8.7081 C.2       4 UNK         0.5027 
     66 O         -47.2504  -22.2248    9.0541 O.2       4 UNK        -0.5211 
     67 CA        -45.2027  -23.4276    9.4002 C.3       4 UNK         0.0297 
     68 CB        -44.6766  -22.1691   10.1262 C.3       4 UNK        -0.1993 
     69 N         -45.3667  -24.5383   10.3358 N.am      4 UNK        -0.4486 
     70 C         -44.3788  -25.1891   10.9572 C.2       3 UNK         0.4961 
     71 O         -43.1827  -24.9888   10.7428 O.2       3 UNK        -0.5105 
     72 CA        -44.7845  -26.2256   12.0194 C.3       3 UNK         0.0299 
     73 CB        -45.6585  -25.6024   13.1306 C.3       3 UNK        -0.1972 
     74 N         -45.3943  -27.4425   11.4704 N.am      3 UNK        -0.4305 
     75 C         -46.5683  -27.5656   10.8370 C.2       2 UNK         0.5006 
     76 O         -47.3117  -26.6182   10.5796 O.2       2 UNK        -0.5106 
     77 CA        -46.9935  -29.0120   10.5138 C.3       2 UNK         0.0296 
     78 CB        -47.5174  -29.7035   11.7860 C.3       2 UNK        -0.2002 
     79 N         -48.0255  -29.1200    9.4803 N.am      2 UNK        -0.4032 
     80 C         -47.8964  -28.7789    8.1901 C.2       1 UNK         0.5000 
     81 O         -46.8596  -28.3198    7.7052 O.2       1 UNK        -0.5238 
     82 H82       -51.7414  -31.7489    8.6166 H         1 UNK         0.0889 
     83 H83       -50.4706  -32.7883    9.2596 H         1 UNK         0.0889 
     84 H84       -51.0919  -33.0578    7.6284 H         1 UNK         0.0889 
     85 H85       -50.9173  -29.7341    8.1128 H         1 UNK         0.3028 
     86 H86       -48.7027  -29.3816    6.3217 H         1 UNK         0.0864 
     87 H87       -50.5134  -27.4216    7.8293 H         1 UNK         0.0720 
     88 H88       -49.1706  -26.8943    6.8568 H         1 UNK         0.0720 
     89 H89       -53.1423  -28.3809    5.1250 H         1 UNK         0.0814 
     90 H90       -52.4780  -29.1567    6.5331 H         1 UNK         0.0814 
     91 H91       -53.1646  -25.6299    5.3185 H         1 UNK         0.1469 
     92 H92       -55.0707  -24.4886    8.9841 H         1 UNK         0.1381 
     93 H93       -53.3861  -28.4099    8.5629 H         1 UNK         0.1206 
     94 H94       -55.5172  -26.0872   10.6658 H         1 UNK         0.0813 
     95 H95       -53.9145  -26.6508   11.0323 H         1 UNK         0.0813 
     96 H96       -53.7656  -30.0923   10.0887 H         1 UNK         0.0638 
     97 H97       -53.0780  -28.8054   11.0445 H         1 UNK         0.0638 
     98 H98       -54.9238  -30.9879   12.0779 H         1 UNK         0.0568 
     99 H99       -52.6190  -31.0716   14.4052 H         1 UNK         0.3450 
    100 H100      -51.5117  -32.1675   13.6158 H         1 UNK         0.3450 
    101 H101      -53.6323  -28.7724   13.6012 H         1 UNK         0.2987 
    102 H102      -55.6824  -28.0404   15.3991 H         1 UNK         0.0766 
    103 H103      -55.9409  -28.9323   17.7220 H         1 UNK         0.0798 
    104 H104      -56.9738  -29.7850   16.5880 H         1 UNK         0.0798 
    105 H105      -55.4933  -30.5426   17.1600 H         1 UNK         0.0798 
    106 H106      -53.6813  -27.5574   16.1825 H         1 UNK         0.3198 
    107 H107      -51.2585  -28.9025   17.8276 H         1 UNK         0.0843 
    108 H108      -50.4282  -29.1508   14.8791 H         1 UNK         0.0831 
    109 H109      -50.1549  -30.3392   16.1452 H         1 UNK         0.0831 
    110 H110      -49.3254  -28.7944   16.2095 H         1 UNK         0.0831 
    111 H111      -51.4562  -26.9491   15.5827 H         1 UNK         0.3133 
    112 H112      -52.6113  -24.3839   17.6537 H         1 UNK         0.0566 
    113 H113      -49.7428  -24.5181   16.5755 H         1 UNK         0.0814 
    114 H114      -50.2154  -24.0701   18.2081 H         1 UNK         0.0814 
    115 H115      -50.6584  -23.0372   16.8573 H         1 UNK         0.0814 
    116 H116      -51.6380  -24.4716   14.9373 H         1 UNK         0.3091 
    117 H117      -54.5094  -25.9972   13.5017 H         1 UNK         0.0702 
    118 H118      -54.7560  -23.9028   12.1895 H         1 UNK         0.0785 
    119 H119      -53.8370  -23.0064   13.3967 H         1 UNK         0.0785 
    120 H120      -55.4085  -23.6843   13.8062 H         1 UNK         0.0785 
    121 H121      -52.3115  -24.6330   12.3139 H         1 UNK         0.2998 
    122 H122      -49.7608  -26.9766   12.8494 H         1 UNK         0.0697 
    123 H123      -51.4933  -26.9978   10.3147 H         1 UNK         0.0825 
    124 H124      -50.8182  -28.3939   11.1611 H         1 UNK         0.0825 
    125 H125      -49.7670  -27.2780   10.3084 H         1 UNK         0.0825 
    126 H126      -49.8156  -25.0386   10.8609 H         1 UNK         0.3029 
    127 H127      -50.1723  -22.0267   12.5967 H         1 UNK         0.0897 
    128 H128      -47.4611  -23.1006   11.6598 H         1 UNK         0.0792 
    129 H129      -47.7949  -22.3408   13.2062 H         1 UNK         0.0792 
    130 H130      -47.9024  -21.3942   11.7295 H         1 UNK         0.0792 
    131 H131      -49.2722  -22.5820    9.9424 H         1 UNK         0.3086 
    132 H132      -51.9498  -24.1189    8.6323 H         1 UNK         0.0583 
    133 H133      -53.4818  -22.1684    8.7070 H         1 UNK         0.1020 
    134 H134      -52.1959  -21.1099    8.1912 H         1 UNK         0.1020 
    135 H135      -55.1999  -23.0151    7.1026 H         1 UNK         0.0694 
    136 H136      -54.8754  -23.6591    5.5156 H         1 UNK         0.0694 
    137 H137      -50.1664  -22.4385    7.2052 H         1 UNK         0.2989 
    138 H138      -48.1586  -24.9731    6.4132 H         1 UNK         0.1055 
    139 H139      -47.3339  -22.8905    5.3566 H         1 UNK         0.0806 
    140 H140      -48.1947  -21.9067    6.5302 H         1 UNK         0.0806 
    141 H141      -49.0837  -22.9144    5.3876 H         1 UNK         0.0806 
    142 H142      -46.2920  -24.8549    7.6091 H         1 UNK         0.3061 
    143 H143      -44.4796  -23.7136    8.6334 H         1 UNK         0.0734 
    144 H144      -44.6333  -21.3173    9.4463 H         1 UNK         0.0832 
    145 H145      -45.3176  -21.8865   10.9618 H         1 UNK         0.0832 
    146 H146      -43.6693  -22.3182   10.5141 H         1 UNK         0.0832 
    147 H147      -46.3147  -24.8790   10.4805 H         1 UNK         0.3156 
    148 H148      -43.8593  -26.5543   12.4956 H         1 UNK         0.0589 
    149 H149      -46.6390  -25.2925   12.7692 H         1 UNK         0.0808 
    150 H150      -45.8168  -26.3069   13.9471 H         1 UNK         0.0808 
    151 H151      -45.1779  -24.7196   13.5543 H         1 UNK         0.0808 
    152 H152      -44.8529  -28.2843   11.6123 H         1 UNK         0.3098 
    153 H153      -46.1146  -29.5521   10.1552 H         1 UNK         0.0720 
    154 H154      -47.7779  -30.7449   11.5949 H         1 UNK         0.0791 
    155 H155      -46.7664  -29.7030   12.5772 H         1 UNK         0.0791 
    156 H156      -48.4029  -29.2028   12.1809 H         1 UNK         0.0791 
    157 H157      -48.9150  -29.4897    9.7762 H         1 UNK         0.3028 
@<TRIPOS>BOND
     1    1    2 1    
     2    1   82 1    
     3    1   83 1    
     4    1   84 1    
     5    2    3 2    
     6    2    4 am   BACKBONE|DICT|INTERRES
     7    4    5 1    
     8    4   85 1    
     9    5    6 1    
    10    5   80 1    
    11    5   86 1    
    12    6    7 1    
    13    6   87 1    
    14    6   88 1    
    15    7    8 1    
    16    8    9 1    
    17    8   89 1    
    18    8   90 1    
    19    9   10 ar   
    20    9   14 ar   
    21   10   11 ar   
    22   10   91 1    
    23   11   12 ar   
    24   11   58 1    
    25   12   13 ar   
    26   12   92 1    
    27   13   14 ar   
    28   13   15 1    
    29   14   93 1    
    30   15   16 1    
    31   15   94 1    
    32   15   95 1    
    33   16   17 1    
    34   17   18 1    
    35   17   96 1    
    36   17   97 1    
    37   18   19 1    
    38   18   22 1    
    39   18   98 1    
    40   19   20 am   BACKBONE|DICT|INTERRES
    41   19   21 2    
    42   20   99 1    
    43   20  100 1    
    44   22   23 am   BACKBONE|DICT|INTERRES
    45   22  101 1    
    46   23   24 2    
    47   23   25 1    
    48   25   26 1    
    49   25   27 1    
    50   25  102 1    
    51   26  103 1    
    52   26  104 1    
    53   26  105 1    
    54   27   28 am   BACKBONE|DICT|INTERRES
    55   27  106 1    
    56   28   29 2    
    57   28   30 1    
    58   30   31 1    
    59   30   32 1    
    60   30  107 1    
    61   31  108 1    
    62   31  109 1    
    63   31  110 1    
    64   32   33 am   BACKBONE|DICT|INTERRES
    65   32  111 1    
    66   33   34 2    
    67   33   35 1    
    68   35   36 1    
    69   35   37 1    
    70   35  112 1    
    71   36  113 1    
    72   36  114 1    
    73   36  115 1    
    74   37   38 am   BACKBONE|DICT|INTERRES
    75   37  116 1    
    76   38   39 2    
    77   38   40 1    
    78   40   41 1    
    79   40   42 1    
    80   40  117 1    
    81   41  118 1    
    82   41  119 1    
    83   41  120 1    
    84   42   43 am   BACKBONE|DICT|INTERRES
    85   42  121 1    
    86   43   44 2    
    87   43   45 1    
    88   45   46 1    
    89   45   47 1    
    90   45  122 1    
    91   46  123 1    
    92   46  124 1    
    93   46  125 1    
    94   47   48 am   BACKBONE|DICT|INTERRES
    95   47  126 1    
    96   48   49 2    
    97   48   50 1    
    98   50   51 1    
    99   50   52 1    
   100   50  127 1    
   101   51  128 1    
   102   51  129 1    
   103   51  130 1    
   104   52   53 am   BACKBONE|DICT|INTERRES
   105   52  131 1    
   106   53   54 2    
   107   53   55 1    
   108   55   56 1    
   109   55   59 1    
   110   55  132 1    
   111   56   57 1    
   112   56  133 1    
   113   56  134 1    
   114   57   58 1    
   115   58  135 1    
   116   58  136 1    
   117   59   60 am   BACKBONE|DICT|INTERRES
   118   59  137 1    
   119   60   61 2    
   120   60   62 1    
   121   62   63 1    
   122   62   64 1    
   123   62  138 1    
   124   63  139 1    
   125   63  140 1    
   126   63  141 1    
   127   64   65 am   BACKBONE|DICT|INTERRES
   128   64  142 1    
   129   65   66 2    
   130   65   67 1    
   131   67   68 1    
   132   67   69 1    
   133   67  143 1    
   134   68  144 1    
   135   68  145 1    
   136   68  146 1    
   137   69   70 am   BACKBONE|DICT|INTERRES
   138   69  147 1    
   139   70   71 2    
   140   70   72 1    
   141   72   73 1    
   142   72   74 1    
   143   72  148 1    
   144   73  149 1    
   145   73  150 1    
   146   73  151 1    
   147   74   75 am   BACKBONE|DICT|INTERRES
   148   74  152 1    
   149   75   76 2    
   150   75   77 1    
   151   77   78 1    
   152   77   79 1    
   153   77  153 1    
   154   78  154 1    
   155   78  155 1    
   156   78  156 1    
   157   79   80 am   BACKBONE|DICT|INTERRES
   158   79  157 1    
   159   80   81 2    
@<TRIPOS>SUBSTRUCTURE
     1 UNK         1 GROUP             0       ****    0 ROOT    
