@<TRIPOS>MOLECULE
3R207
157   159    1
SMALL
USER_CHARGES


@<TRIPOS>ATOM
      1 CA        -45.2180  -30.6025    6.0371 C.3       0 UNK        -0.1975 
      2 C         -45.5001  -30.0960    7.4499 C.2       0 UNK         0.4852 
      3 O         -44.5605  -29.9277    8.2245 O.2       0 UNK        -0.5216 
      4 N         -46.7585  -29.8451    7.8433 N.am      1 UNK        -0.4461 
      5 CA        -47.9940  -29.9635    7.0539 C.3       1 UNK         0.0864 
      6 C6        -49.2559  -29.7910    7.9331 C.3       14 UNK        -0.0898 
      7 S7        -49.3724  -30.9837    9.3084 S.3       14 UNK        -0.2598 
      8 C8        -50.2774  -30.0123   10.5600 C.3       14 UNK         0.0286 
      9 C9        -51.6856  -29.6538   10.1007 C.ar      14 UNK        -0.0844 
     10 C10       -51.9150  -28.4570    9.4175 C.ar      14 UNK        -0.0881 
     11 C11       -53.2023  -28.0971    9.0026 C.ar      14 UNK        -0.0643 
     12 C12       -54.2608  -28.9710    9.2601 C.ar      14 UNK        -0.0930 
     13 C13       -54.0537  -30.1655    9.9545 C.ar      14 UNK        -0.0827 
     14 C14       -52.7617  -30.5041   10.3703 C.ar      14 UNK        -0.1249 
     15 C15       -55.2245  -31.0882   10.2570 C.3       14 UNK         0.0141 
     16 S16       -56.0004  -30.6536   11.8456 S.3       14 UNK        -0.2313 
     17 C17       -57.5961  -29.9203   11.3407 C.3       14 UNK        -0.0915 
     18 CA        -57.5572  -28.3935   11.0541 C.3       13 UNK         0.0968 
     19 C         -58.9731  -27.8725   10.6712 C.2       13 UNK         0.5732 
     20 N         -59.6042  -27.0110   11.4606 N.am      13 UNK        -0.7310 
     21 O         -59.5064  -28.2551    9.6323 O.2       13 UNK        -0.5035 
     22 N         -56.8868  -27.6375   12.1231 N.am      13 UNK        -0.4233 
     23 C         -56.4055  -26.3943   12.0117 C.2       13 UNK         0.4989 
     24 O         -56.4575  -25.7302   10.9763 O.2       13 UNK        -0.4996 
     25 CA        -55.7425  -25.7805   13.2592 C.3       12 UNK         0.0216 
     26 CB        -56.7937  -25.3441   14.2984 C.3       12 UNK        -0.1964 
     27 N         -54.6973  -26.6182   13.8624 N.am      12 UNK        -0.4276 
     28 C         -54.8079  -27.8244   14.4397 C.2       12 UNK         0.5020 
     29 O         -55.8753  -28.4130   14.6181 O.2       12 UNK        -0.5489 
     30 CA        -53.4987  -28.4879   14.8848 C.3       11 UNK         0.0294 
     31 CB        -52.7747  -29.1230   13.6858 C.3       11 UNK        -0.2019 
     32 N         -52.6029  -27.5362   15.5367 N.am      11 UNK        -0.4493 
     33 C         -52.6873  -27.1636   16.8205 C.2       11 UNK         0.4932 
     34 O         -53.5590  -27.5657   17.5931 O.2       11 UNK        -0.5029 
     35 CA        -51.5990  -26.1910   17.3210 C.3       10 UNK         0.0280 
     36 CB        -51.4470  -26.1920   18.8567 C.3       10 UNK        -0.1976 
     37 N         -50.3008  -26.4000   16.6649 N.am      10 UNK        -0.4242 
     38 C         -49.5570  -27.5204   16.6596 C.2       10 UNK         0.5072 
     39 O         -49.8322  -28.5277   17.3131 O.2       10 UNK        -0.5224 
     40 CA        -48.3190  -27.5563   15.7418 C.3       9 UNK         0.0343 
     41 CB        -48.4972  -28.6288   14.6523 C.3       9 UNK        -0.2003 
     42 N         -48.0397  -26.2667   15.1024 N.am      9 UNK        -0.4272 
     43 C         -47.3567  -25.2724   15.6880 C.2       9 UNK         0.4988 
     44 O         -46.8226  -25.3693   16.7934 O.2       9 UNK        -0.5108 
     45 CA        -47.2834  -23.9297   14.9404 C.3       8 UNK         0.0248 
     46 CB        -46.0870  -23.9044   13.9772 C.3       8 UNK        -0.2001 
     47 N         -48.5126  -23.5770   14.2206 N.am      8 UNK        -0.4140 
     48 C         -49.6998  -23.3562   14.8059 C.2       8 UNK         0.5028 
     49 O         -49.9094  -23.5155   16.0075 O.2       8 UNK        -0.5428 
     50 CA        -50.8533  -22.8964   13.9061 C.3       7 UNK         0.0264 
     51 CB        -50.7170  -21.4025   13.5693 C.3       7 UNK        -0.1988 
     52 N         -50.9041  -23.6707   12.6704 N.am      7 UNK        -0.4454 
     53 C         -51.5474  -24.8378   12.5307 C.2       7 UNK         0.5027 
     54 O         -52.1988  -25.3817   13.4247 O.2       7 UNK        -0.5083 
     55 CA        -51.4170  -25.5263   11.1579 C.3       6 UNK         0.0844 
     56 C56       -52.4721  -24.9567   10.1708 C.3       14 UNK        -0.0967 
     57 S57       -52.2375  -25.4840    8.4360 S.3       14 UNK        -0.2604 
     58 C58       -53.4930  -26.7973    8.2510 C.3       14 UNK         0.0134 
     59 N         -50.0493  -25.4567   10.6322 N.am      6 UNK        -0.4116 
     60 C         -48.9544  -25.9282   11.2444 C.2       5 UNK         0.5034 
     61 O         -48.9635  -26.4988   12.3337 O.2       5 UNK        -0.5045 
     62 CA        -47.6080  -25.6829   10.5461 C.3       5 UNK         0.0224 
     63 CB        -47.2884  -26.8542    9.6085 C.3       5 UNK        -0.1978 
     64 N         -47.5084  -24.4121    9.8121 N.am      5 UNK        -0.4737 
     65 C         -47.7809  -23.1952   10.3135 C.2       4 UNK         0.5027 
     66 O         -48.2210  -23.0138   11.4502 O.2       4 UNK        -0.5211 
     67 CA        -47.5250  -21.9624    9.4280 C.3       4 UNK         0.0297 
     68 CB        -46.4242  -21.0846   10.0467 C.3       4 UNK        -0.1993 
     69 N         -47.1631  -22.2678    8.0417 N.am      4 UNK        -0.4486 
     70 C         -48.0059  -22.6995    7.0946 C.2       3 UNK         0.4961 
     71 O         -49.1983  -22.9318    7.2971 O.2       3 UNK        -0.5105 
     72 CA        -47.4302  -22.9041    5.6772 C.3       3 UNK         0.0299 
     73 CB        -45.9552  -22.4649    5.5180 C.3       3 UNK        -0.1972 
     74 N         -47.6026  -24.2806    5.2000 N.am      3 UNK        -0.4305 
     75 C         -47.1622  -25.3965    5.7970 C.2       2 UNK         0.5006 
     76 O         -46.5502  -25.4177    6.8686 O.2       2 UNK        -0.5106 
     77 CA        -47.4238  -26.7092    5.0507 C.3       2 UNK         0.0296 
     78 CB        -46.3540  -26.9516    3.9697 C.3       2 UNK        -0.2002 
     79 N         -47.4130  -27.8062    6.0125 N.am      2 UNK        -0.4032 
     80 C         -48.0663  -28.9669    5.8757 C.2       1 UNK         0.5000 
     81 O         -48.7132  -29.2713    4.8724 O.2       1 UNK        -0.5238 
     82 H82       -44.2361  -31.0736    5.9952 H         1 UNK         0.0889 
     83 H83       -45.2198  -29.7766    5.3264 H         1 UNK         0.0889 
     84 H84       -45.9462  -31.3457    5.7161 H         1 UNK         0.0889 
     85 H85       -46.9003  -29.5696    8.8036 H         1 UNK         0.3028 
     86 H86       -48.0253  -30.9690    6.6303 H         1 UNK         0.0864 
     87 H87       -49.2769  -28.7820    8.3426 H         1 UNK         0.0720 
     88 H88       -50.1626  -29.8985    7.3334 H         1 UNK         0.0720 
     89 H89       -49.7148  -29.1091   10.8026 H         1 UNK         0.0814 
     90 H90       -50.3282  -30.5896   11.4844 H         1 UNK         0.0814 
     91 H91       -51.0820  -27.8021    9.2152 H         1 UNK         0.1469 
     92 H92       -55.2512  -28.7175    8.9139 H         1 UNK         0.1381 
     93 H93       -52.5942  -31.4278   10.9072 H         1 UNK         0.1206 
     94 H94       -54.8783  -32.1215   10.3078 H         1 UNK         0.0813 
     95 H95       -55.9537  -31.0545    9.4466 H         1 UNK         0.0813 
     96 H96       -57.9742  -30.4649   10.4737 H         1 UNK         0.0638 
     97 H97       -58.3029  -30.1226   12.1475 H         1 UNK         0.0638 
     98 H98       -56.9590  -28.2499   10.1569 H         1 UNK         0.0568 
     99 H99       -60.5189  -26.6794   11.1981 H         1 UNK         0.3450 
    100 H100      -59.1768  -26.6951   12.3157 H         1 UNK         0.3450 
    101 H101      -56.7504  -28.1189   13.0093 H         1 UNK         0.2987 
    102 H102      -55.2272  -24.8788   12.9236 H         1 UNK         0.0766 
    103 H103      -56.3263  -24.8351   15.1414 H         1 UNK         0.0798 
    104 H104      -57.3599  -26.1887   14.6918 H         1 UNK         0.0798 
    105 H105      -57.5106  -24.6499   13.8582 H         1 UNK         0.0798 
    106 H106      -53.7559  -26.2365   13.7730 H         1 UNK         0.3198 
    107 H107      -53.7463  -29.2831   15.5919 H         1 UNK         0.0843 
    108 H108      -53.4082  -29.8670   13.2022 H         1 UNK         0.0831 
    109 H109      -51.8615  -29.6311   13.9956 H         1 UNK         0.0831 
    110 H110      -52.5077  -28.3848   12.9285 H         1 UNK         0.0831 
    111 H111      -51.8990  -27.0986   14.9575 H         1 UNK         0.3133 
    112 H112      -51.9294  -25.1946   17.0243 H         1 UNK         0.0566 
    113 H113      -50.6814  -25.4861   19.1787 H         1 UNK         0.0814 
    114 H114      -52.3791  -25.9006   19.3424 H         1 UNK         0.0814 
    115 H115      -51.1772  -27.1776   19.2370 H         1 UNK         0.0814 
    116 H116      -49.9570  -25.5973   16.1493 H         1 UNK         0.3091 
    117 H117      -47.4634  -27.8424   16.3572 H         1 UNK         0.0702 
    118 H118      -47.6452  -28.6530   13.9727 H         1 UNK         0.0785 
    119 H119      -49.3954  -28.4560   14.0582 H         1 UNK         0.0785 
    120 H120      -48.5884  -29.6223   15.0932 H         1 UNK         0.0785 
    121 H121      -48.4201  -26.1353   14.1684 H         1 UNK         0.2998 
    122 H122      -47.1219  -23.1520   15.6899 H         1 UNK         0.0697 
    123 H123      -46.1620  -24.6847   13.2224 H         1 UNK         0.0825 
    124 H124      -45.1517  -24.0636   14.5155 H         1 UNK         0.0825 
    125 H125      -46.0071  -22.9459   13.4638 H         1 UNK         0.0825 
    126 H126      -48.4235  -23.4087   13.2197 H         1 UNK         0.3029 
    127 H127      -51.7863  -23.0349   14.4578 H         1 UNK         0.0897 
    128 H128      -51.5652  -21.0513   12.9815 H         1 UNK         0.0792 
    129 H129      -50.6817  -20.8000   14.4781 H         1 UNK         0.0792 
    130 H130      -49.8082  -21.1933   13.0031 H         1 UNK         0.0792 
    131 H131      -50.3165  -23.3458   11.9117 H         1 UNK         0.3086 
    132 H132      -51.6384  -26.5810   11.3231 H         1 UNK         0.0583 
    133 H133      -53.4783  -25.2268   10.4986 H         1 UNK         0.1020 
    134 H134      -52.4453  -23.8649   10.1689 H         1 UNK         0.1020 
    135 H135      -54.4605  -26.3978    8.5606 H         1 UNK         0.0694 
    136 H136      -53.5827  -27.0332    7.1900 H         1 UNK         0.0694 
    137 H137      -49.9399  -24.9987    9.7382 H         1 UNK         0.2989 
    138 H138      -46.8451  -25.6656   11.3239 H         1 UNK         0.1055 
    139 H139      -47.3771  -27.8087   10.1295 H         1 UNK         0.0806 
    140 H140      -46.2691  -26.7890    9.2269 H         1 UNK         0.0806 
    141 H141      -47.9692  -26.8740    8.7582 H         1 UNK         0.0806 
    142 H142      -47.1575  -24.4686    8.8629 H         1 UNK         0.3061 
    143 H143      -48.4518  -21.3849    9.4169 H         1 UNK         0.0734 
    144 H144      -46.6810  -20.7943   11.0667 H         1 UNK         0.0832 
    145 H145      -45.4675  -21.6066   10.0896 H         1 UNK         0.0832 
    146 H146      -46.2821  -20.1648    9.4792 H         1 UNK         0.0832 
    147 H147      -46.1950  -22.1333    7.7873 H         1 UNK         0.3156 
    148 H148      -48.0300  -22.2744    5.0184 H         1 UNK         0.0589 
    149 H149      -45.2771  -23.0569    6.1341 H         1 UNK         0.0808 
    150 H150      -45.6288  -22.5711    4.4833 H         1 UNK         0.0808 
    151 H151      -45.8215  -21.4149    5.7822 H         1 UNK         0.0808 
    152 H152      -48.1213  -24.3764    4.3378 H         1 UNK         0.3098 
    153 H153      -48.4100  -26.6484    4.5849 H         1 UNK         0.0720 
    154 H154      -46.3373  -26.1390    3.2424 H         1 UNK         0.0791 
    155 H155      -46.5465  -27.8727    3.4191 H         1 UNK         0.0791 
    156 H156      -45.3555  -27.0235    4.4029 H         1 UNK         0.0791 
    157 H157      -46.9166  -27.6012    6.8707 H         1 UNK         0.3028 
@<TRIPOS>BOND
     1    1    2 1    
     2    1   82 1    
     3    1   83 1    
     4    1   84 1    
     5    2    3 2    
     6    2    4 am   BACKBONE|DICT|INTERRES
     7    4    5 1    
     8    4   85 1    
     9    5    6 1    
    10    5   80 1    
    11    5   86 1    
    12    6    7 1    
    13    6   87 1    
    14    6   88 1    
    15    7    8 1    
    16    8    9 1    
    17    8   89 1    
    18    8   90 1    
    19    9   10 ar   
    20    9   14 ar   
    21   10   11 ar   
    22   10   91 1    
    23   11   12 ar   
    24   11   58 1    
    25   12   13 ar   
    26   12   92 1    
    27   13   14 ar   
    28   13   15 1    
    29   14   93 1    
    30   15   16 1    
    31   15   94 1    
    32   15   95 1    
    33   16   17 1    
    34   17   18 1    
    35   17   96 1    
    36   17   97 1    
    37   18   19 1    
    38   18   22 1    
    39   18   98 1    
    40   19   20 am   BACKBONE|DICT|INTERRES
    41   19   21 2    
    42   20   99 1    
    43   20  100 1    
    44   22   23 am   BACKBONE|DICT|INTERRES
    45   22  101 1    
    46   23   24 2    
    47   23   25 1    
    48   25   26 1    
    49   25   27 1    
    50   25  102 1    
    51   26  103 1    
    52   26  104 1    
    53   26  105 1    
    54   27   28 am   BACKBONE|DICT|INTERRES
    55   27  106 1    
    56   28   29 2    
    57   28   30 1    
    58   30   31 1    
    59   30   32 1    
    60   30  107 1    
    61   31  108 1    
    62   31  109 1    
    63   31  110 1    
    64   32   33 am   BACKBONE|DICT|INTERRES
    65   32  111 1    
    66   33   34 2    
    67   33   35 1    
    68   35   36 1    
    69   35   37 1    
    70   35  112 1    
    71   36  113 1    
    72   36  114 1    
    73   36  115 1    
    74   37   38 am   BACKBONE|DICT|INTERRES
    75   37  116 1    
    76   38   39 2    
    77   38   40 1    
    78   40   41 1    
    79   40   42 1    
    80   40  117 1    
    81   41  118 1    
    82   41  119 1    
    83   41  120 1    
    84   42   43 am   BACKBONE|DICT|INTERRES
    85   42  121 1    
    86   43   44 2    
    87   43   45 1    
    88   45   46 1    
    89   45   47 1    
    90   45  122 1    
    91   46  123 1    
    92   46  124 1    
    93   46  125 1    
    94   47   48 am   BACKBONE|DICT|INTERRES
    95   47  126 1    
    96   48   49 2    
    97   48   50 1    
    98   50   51 1    
    99   50   52 1    
   100   50  127 1    
   101   51  128 1    
   102   51  129 1    
   103   51  130 1    
   104   52   53 am   BACKBONE|DICT|INTERRES
   105   52  131 1    
   106   53   54 2    
   107   53   55 1    
   108   55   56 1    
   109   55   59 1    
   110   55  132 1    
   111   56   57 1    
   112   56  133 1    
   113   56  134 1    
   114   57   58 1    
   115   58  135 1    
   116   58  136 1    
   117   59   60 am   BACKBONE|DICT|INTERRES
   118   59  137 1    
   119   60   61 2    
   120   60   62 1    
   121   62   63 1    
   122   62   64 1    
   123   62  138 1    
   124   63  139 1    
   125   63  140 1    
   126   63  141 1    
   127   64   65 am   BACKBONE|DICT|INTERRES
   128   64  142 1    
   129   65   66 2    
   130   65   67 1    
   131   67   68 1    
   132   67   69 1    
   133   67  143 1    
   134   68  144 1    
   135   68  145 1    
   136   68  146 1    
   137   69   70 am   BACKBONE|DICT|INTERRES
   138   69  147 1    
   139   70   71 2    
   140   70   72 1    
   141   72   73 1    
   142   72   74 1    
   143   72  148 1    
   144   73  149 1    
   145   73  150 1    
   146   73  151 1    
   147   74   75 am   BACKBONE|DICT|INTERRES
   148   74  152 1    
   149   75   76 2    
   150   75   77 1    
   151   77   78 1    
   152   77   79 1    
   153   77  153 1    
   154   78  154 1    
   155   78  155 1    
   156   78  156 1    
   157   79   80 am   BACKBONE|DICT|INTERRES
   158   79  157 1    
   159   80   81 2    
@<TRIPOS>SUBSTRUCTURE
     1 UNK         1 GROUP             0       ****    0 ROOT    
