@<TRIPOS>MOLECULE
3R207
157   159    1
SMALL
USER_CHARGES


@<TRIPOS>ATOM
      1 CA        -45.8636  -29.7130   12.4297 C.3       0 UNK        -0.1975 
      2 C         -46.5337  -29.4791   11.0839 C.2       0 UNK         0.4852 
      3 O         -45.9573  -29.8114   10.0473 O.2       0 UNK        -0.5216 
      4 N         -47.7477  -28.9133   11.0923 N.am      1 UNK        -0.4461 
      5 CA        -48.5108  -28.5465    9.8968 C.3       1 UNK         0.0864 
      6 C6        -49.9666  -28.1526   10.2436 C.3       14 UNK        -0.0898 
      7 S7        -50.9648  -29.5839   10.7637 S.3       14 UNK        -0.2598 
      8 C8        -51.8313  -30.0196    9.2166 C.3       14 UNK         0.0286 
      9 C9        -52.8337  -28.9509    8.8007 C.ar      14 UNK        -0.0844 
     10 C10       -52.5518  -28.0816    7.7418 C.ar      14 UNK        -0.0881 
     11 C11       -53.4472  -27.0621    7.3982 C.ar      14 UNK        -0.0643 
     12 C12       -54.6446  -26.9346    8.1114 C.ar      14 UNK        -0.0930 
     13 C13       -54.9517  -27.8181    9.1511 C.ar      14 UNK        -0.0827 
     14 C14       -54.0452  -28.8272    9.4838 C.ar      14 UNK        -0.1249 
     15 C15       -56.2542  -27.6829    9.9258 C.3       14 UNK         0.0141 
     16 S16       -55.9497  -26.9601   11.5643 S.3       14 UNK        -0.2313 
     17 C17       -57.6402  -26.7755   12.2260 C.3       14 UNK        -0.0915 
     18 CA        -58.0232  -27.8354   13.2957 C.3       13 UNK         0.0968 
     19 C         -58.4084  -29.2102   12.6693 C.2       13 UNK         0.5732 
     20 N         -57.8689  -30.3384   13.1168 N.am      13 UNK        -0.7310 
     21 O         -59.2339  -29.2576   11.7604 O.2       13 UNK        -0.5035 
     22 N         -57.0201  -27.9019   14.3683 N.am      13 UNK        -0.4233 
     23 C         -57.2508  -28.2888   15.6287 C.2       13 UNK         0.4989 
     24 O         -58.3727  -28.5220   16.0819 O.2       13 UNK        -0.4996 
     25 CA        -55.9982  -28.4723   16.5095 C.3       12 UNK         0.0216 
     26 CB        -56.2865  -29.2012   17.8388 C.3       12 UNK        -0.1964 
     27 N         -54.9063  -29.1262   15.7760 N.am      12 UNK        -0.4276 
     28 C         -54.9265  -30.3349   15.1928 C.2       12 UNK         0.5020 
     29 O         -55.8767  -31.1147   15.2643 O.2       12 UNK        -0.5489 
     30 CA        -53.7182  -30.7222   14.3269 C.3       11 UNK         0.0294 
     31 CB        -54.0609  -30.5087   12.8452 C.3       11 UNK        -0.2019 
     32 N         -52.5230  -29.9396   14.6491 N.am      11 UNK        -0.4493 
     33 C         -51.5086  -30.3735   15.4097 C.2       11 UNK         0.4932 
     34 O         -51.4488  -31.5018   15.8990 O.2       11 UNK        -0.5029 
     35 CA        -50.3618  -29.3799   15.6774 C.3       10 UNK         0.0280 
     36 CB        -49.2877  -29.4939   14.5833 C.3       10 UNK        -0.1976 
     37 N         -50.8116  -27.9888   15.7654 N.am      10 UNK        -0.4242 
     38 C         -51.6120  -27.4963   16.7218 C.2       10 UNK         0.5072 
     39 O         -51.9974  -28.1432   17.6956 O.2       10 UNK        -0.5224 
     40 CA        -52.0959  -26.0449   16.5479 C.3       9 UNK         0.0343 
     41 CB        -51.2190  -25.0854   17.3677 C.3       9 UNK        -0.2003 
     42 N         -52.1428  -25.5791   15.1570 N.am      9 UNK        -0.4272 
     43 C         -52.8584  -26.1176   14.1621 C.2       9 UNK         0.4988 
     44 O         -53.5370  -27.1366   14.2931 O.2       9 UNK        -0.5108 
     45 CA        -52.7891  -25.4347   12.7851 C.3       8 UNK         0.0248 
     46 CB        -53.7645  -24.2442   12.7150 C.3       8 UNK        -0.2001 
     47 N         -51.4427  -25.0468   12.3382 N.am      8 UNK        -0.4140 
     48 C         -50.5983  -24.1386   12.8530 C.2       8 UNK         0.5028 
     49 O         -50.8129  -23.5010   13.8847 O.2       8 UNK        -0.5428 
     50 CA        -49.2778  -23.9129   12.0957 C.3       7 UNK         0.0264 
     51 CB        -48.1502  -24.7444   12.7299 C.3       7 UNK        -0.1988 
     52 N         -49.3585  -24.2320   10.6677 N.am      7 UNK        -0.4454 
     53 C         -50.0805  -23.5555    9.7636 C.2       7 UNK         0.5027 
     54 O         -50.7484  -22.5522   10.0208 O.2       7 UNK        -0.5083 
     55 CA        -50.0648  -24.1096    8.3264 C.3       6 UNK         0.0844 
     56 C56       -51.4952  -24.4459    7.8410 C.3       14 UNK        -0.0967 
     57 S57       -51.4572  -25.4069    6.2920 S.3       14 UNK        -0.2604 
     58 C58       -53.1428  -26.1065    6.2467 C.3       14 UNK         0.0134 
     59 N         -49.3652  -23.1973    7.4172 N.am      6 UNK        -0.4116 
     60 C         -48.0598  -22.9096    7.4907 C.2       5 UNK         0.5034 
     61 O         -47.3047  -23.3960    8.3393 O.2       5 UNK        -0.5045 
     62 CA        -47.4888  -21.9858    6.3935 C.3       5 UNK         0.0224 
     63 CB        -48.2135  -20.6237    6.3235 C.3       5 UNK        -0.1978 
     64 N         -46.0324  -21.8440    6.5490 N.am      5 UNK        -0.4737 
     65 C         -45.3834  -21.1927    7.5263 C.2       4 UNK         0.5027 
     66 O         -45.8700  -20.3056    8.2291 O.2       4 UNK        -0.5211 
     67 CA        -44.0010  -21.7624    7.8586 C.3       4 UNK         0.0297 
     68 CB        -43.2238  -20.9023    8.8787 C.3       4 UNK        -0.1993 
     69 N         -44.2470  -23.1070    8.3815 N.am      4 UNK        -0.4486 
     70 C         -43.3375  -24.0640    8.5931 C.2       3 UNK         0.4961 
     71 O         -42.1343  -23.9340    8.3652 O.2       3 UNK        -0.5105 
     72 CA        -43.8603  -25.3983    9.1531 C.3       3 UNK         0.0299 
     73 CB        -43.9603  -25.3404   10.6862 C.3       3 UNK        -0.1972 
     74 N         -45.1636  -25.7764    8.6047 N.am      3 UNK        -0.4305 
     75 C         -45.3798  -26.2452    7.3705 C.2       2 UNK         0.5006 
     76 O         -44.4827  -26.4204    6.5438 O.2       2 UNK        -0.5106 
     77 CA        -46.8414  -26.5917    7.0104 C.3       2 UNK         0.0296 
     78 CB        -47.0002  -27.0674    5.5542 C.3       2 UNK        -0.2002 
     79 N         -47.4365  -27.5917    7.9026 N.am      2 UNK        -0.4032 
     80 C         -47.8226  -27.3808    9.1680 C.2       1 UNK         0.5000 
     81 O         -47.6904  -26.3059    9.7592 O.2       1 UNK        -0.5238 
     82 H82       -45.7408  -30.7811   12.6068 H         1 UNK         0.0889 
     83 H83       -46.4424  -29.2957   13.2528 H         1 UNK         0.0889 
     84 H84       -44.8775  -29.2493   12.4425 H         1 UNK         0.0889 
     85 H85       -48.1690  -28.6568   11.9714 H         1 UNK         0.3028 
     86 H86       -48.5337  -29.4103    9.2287 H         1 UNK         0.0864 
     87 H87       -50.4529  -27.6656    9.3984 H         1 UNK         0.0720 
     88 H88       -49.9820  -27.4197   11.0516 H         1 UNK         0.0720 
     89 H89       -51.0986  -30.1949    8.4275 H         1 UNK         0.0814 
     90 H90       -52.3544  -30.9658    9.3620 H         1 UNK         0.0814 
     91 H91       -51.6246  -28.1837    7.1947 H         1 UNK         0.1469 
     92 H92       -55.3429  -26.1500    7.8536 H         1 UNK         0.1381 
     93 H93       -54.2757  -29.5064   10.2907 H         1 UNK         0.1206 
     94 H94       -56.7202  -28.6627   10.0399 H         1 UNK         0.0813 
     95 H95       -56.9636  -27.0602    9.3787 H         1 UNK         0.0813 
     96 H96       -57.6941  -25.7842   12.6783 H         1 UNK         0.0638 
     97 H97       -58.3623  -26.7550   11.4079 H         1 UNK         0.0638 
     98 H98       -58.9498  -27.4818   13.7512 H         1 UNK         0.0568 
     99 H99       -57.2218  -30.3502   13.8954 H         1 UNK         0.3450 
    100 H100      -58.1492  -31.2081   12.6934 H         1 UNK         0.3450 
    101 H101      -56.0663  -27.7355   14.0766 H         1 UNK         0.2987 
    102 H102      -55.6460  -27.4685   16.7519 H         1 UNK         0.0766 
    103 H103      -55.3816  -29.3010   18.4384 H         1 UNK         0.0798 
    104 H104      -57.0125  -28.6495   18.4373 H         1 UNK         0.0798 
    105 H105      -56.6926  -30.1999   17.6752 H         1 UNK         0.0798 
    106 H106      -54.1242  -28.5215   15.5472 H         1 UNK         0.3198 
    107 H107      -53.5296  -31.7865   14.4833 H         1 UNK         0.0843 
    108 H108      -53.2564  -30.8617   12.2011 H         1 UNK         0.0831 
    109 H109      -54.2356  -29.4549   12.6234 H         1 UNK         0.0831 
    110 H110      -54.9612  -31.0566   12.5637 H         1 UNK         0.0831 
    111 H111      -52.5047  -28.9872   14.3044 H         1 UNK         0.3133 
    112 H112      -49.9071  -29.6460   16.6339 H         1 UNK         0.0566 
    113 H113      -49.6839  -29.2300   13.6023 H         1 UNK         0.0814 
    114 H114      -48.9070  -30.5142   14.5161 H         1 UNK         0.0814 
    115 H115      -48.4376  -28.8449   14.7938 H         1 UNK         0.0814 
    116 H116      -50.5371  -27.3695   15.0178 H         1 UNK         0.3091 
    117 H117      -53.1142  -25.9971   16.9389 H         1 UNK         0.0702 
    118 H118      -50.1934  -25.0608   16.9967 H         1 UNK         0.0785 
    119 H119      -51.1814  -25.3866   18.4157 H         1 UNK         0.0785 
    120 H120      -51.6100  -24.0682   17.3381 H         1 UNK         0.0785 
    121 H121      -51.6134  -24.7378   14.9306 H         1 UNK         0.2998 
    122 H122      -53.1265  -26.1773   12.0604 H         1 UNK         0.0697 
    123 H123      -54.7734  -24.5478   12.9969 H         1 UNK         0.0825 
    124 H124      -53.8196  -23.8395   11.7043 H         1 UNK         0.0825 
    125 H125      -53.4734  -23.4349   13.3851 H         1 UNK         0.0825 
    126 H126      -51.1276  -25.5181   11.5037 H         1 UNK         0.3029 
    127 H127      -49.0233  -22.8550   12.1899 H         1 UNK         0.0897 
    128 H128      -47.1915  -24.5380   12.2532 H         1 UNK         0.0792 
    129 H129      -48.0409  -24.5131   13.7905 H         1 UNK         0.0792 
    130 H130      -48.3393  -25.8152   12.6449 H         1 UNK         0.0792 
    131 H131      -48.7597  -24.9907   10.3399 H         1 UNK         0.3086 
    132 H132      -49.5039  -25.0447    8.3344 H         1 UNK         0.0583 
    133 H133      -52.0236  -25.0304    8.5969 H         1 UNK         0.1020 
    134 H134      -52.0839  -23.5389    7.6899 H         1 UNK         0.1020 
    135 H135      -53.8578  -25.2825    6.2281 H         1 UNK         0.0694 
    136 H136      -53.2704  -26.6456    5.3072 H         1 UNK         0.0694 
    137 H137      -49.9268  -22.7738    6.6940 H         1 UNK         0.2989 
    138 H138      -47.6406  -22.4979    5.4417 H         1 UNK         0.1055 
    139 H139      -47.7054  -19.9381    5.6452 H         1 UNK         0.0806 
    140 H140      -48.2787  -20.1425    7.2999 H         1 UNK         0.0806 
    141 H141      -49.2335  -20.7391    5.9561 H         1 UNK         0.0806 
    142 H142      -45.4982  -22.5472    6.0564 H         1 UNK         0.3061 
    143 H143      -43.4237  -21.8312    6.9344 H         1 UNK         0.0734 
    144 H144      -43.1114  -19.8791    8.5182 H         1 UNK         0.0832 
    145 H145      -43.7363  -20.8565    9.8403 H         1 UNK         0.0832 
    146 H146      -42.2213  -21.2924    9.0530 H         1 UNK         0.0832 
    147 H147      -45.2259  -23.3183    8.5626 H         1 UNK         0.3156 
    148 H148      -43.1406  -26.1763    8.8894 H         1 UNK         0.0589 
    149 H149      -44.6851  -24.5949   11.0162 H         1 UNK         0.0808 
    150 H150      -44.2596  -26.3037   11.1001 H         1 UNK         0.0808 
    151 H151      -42.9984  -25.0809   11.1307 H         1 UNK         0.0808 
    152 H152      -45.9752  -25.6820    9.2112 H         1 UNK         0.3098 
    153 H153      -47.4200  -25.6748    7.1065 H         1 UNK         0.0720 
    154 H154      -46.4647  -28.0001    5.3726 H         1 UNK         0.0791 
    155 H155      -48.0489  -27.2255    5.3011 H         1 UNK         0.0791 
    156 H156      -46.6109  -26.3255    4.8556 H         1 UNK         0.0791 
    157 H157      -47.5374  -28.5201    7.5180 H         1 UNK         0.3028 
@<TRIPOS>BOND
     1    1    2 1    
     2    1   82 1    
     3    1   83 1    
     4    1   84 1    
     5    2    3 2    
     6    2    4 am   BACKBONE|DICT|INTERRES
     7    4    5 1    
     8    4   85 1    
     9    5    6 1    
    10    5   80 1    
    11    5   86 1    
    12    6    7 1    
    13    6   87 1    
    14    6   88 1    
    15    7    8 1    
    16    8    9 1    
    17    8   89 1    
    18    8   90 1    
    19    9   10 ar   
    20    9   14 ar   
    21   10   11 ar   
    22   10   91 1    
    23   11   12 ar   
    24   11   58 1    
    25   12   13 ar   
    26   12   92 1    
    27   13   14 ar   
    28   13   15 1    
    29   14   93 1    
    30   15   16 1    
    31   15   94 1    
    32   15   95 1    
    33   16   17 1    
    34   17   18 1    
    35   17   96 1    
    36   17   97 1    
    37   18   19 1    
    38   18   22 1    
    39   18   98 1    
    40   19   20 am   BACKBONE|DICT|INTERRES
    41   19   21 2    
    42   20   99 1    
    43   20  100 1    
    44   22   23 am   BACKBONE|DICT|INTERRES
    45   22  101 1    
    46   23   24 2    
    47   23   25 1    
    48   25   26 1    
    49   25   27 1    
    50   25  102 1    
    51   26  103 1    
    52   26  104 1    
    53   26  105 1    
    54   27   28 am   BACKBONE|DICT|INTERRES
    55   27  106 1    
    56   28   29 2    
    57   28   30 1    
    58   30   31 1    
    59   30   32 1    
    60   30  107 1    
    61   31  108 1    
    62   31  109 1    
    63   31  110 1    
    64   32   33 am   BACKBONE|DICT|INTERRES
    65   32  111 1    
    66   33   34 2    
    67   33   35 1    
    68   35   36 1    
    69   35   37 1    
    70   35  112 1    
    71   36  113 1    
    72   36  114 1    
    73   36  115 1    
    74   37   38 am   BACKBONE|DICT|INTERRES
    75   37  116 1    
    76   38   39 2    
    77   38   40 1    
    78   40   41 1    
    79   40   42 1    
    80   40  117 1    
    81   41  118 1    
    82   41  119 1    
    83   41  120 1    
    84   42   43 am   BACKBONE|DICT|INTERRES
    85   42  121 1    
    86   43   44 2    
    87   43   45 1    
    88   45   46 1    
    89   45   47 1    
    90   45  122 1    
    91   46  123 1    
    92   46  124 1    
    93   46  125 1    
    94   47   48 am   BACKBONE|DICT|INTERRES
    95   47  126 1    
    96   48   49 2    
    97   48   50 1    
    98   50   51 1    
    99   50   52 1    
   100   50  127 1    
   101   51  128 1    
   102   51  129 1    
   103   51  130 1    
   104   52   53 am   BACKBONE|DICT|INTERRES
   105   52  131 1    
   106   53   54 2    
   107   53   55 1    
   108   55   56 1    
   109   55   59 1    
   110   55  132 1    
   111   56   57 1    
   112   56  133 1    
   113   56  134 1    
   114   57   58 1    
   115   58  135 1    
   116   58  136 1    
   117   59   60 am   BACKBONE|DICT|INTERRES
   118   59  137 1    
   119   60   61 2    
   120   60   62 1    
   121   62   63 1    
   122   62   64 1    
   123   62  138 1    
   124   63  139 1    
   125   63  140 1    
   126   63  141 1    
   127   64   65 am   BACKBONE|DICT|INTERRES
   128   64  142 1    
   129   65   66 2    
   130   65   67 1    
   131   67   68 1    
   132   67   69 1    
   133   67  143 1    
   134   68  144 1    
   135   68  145 1    
   136   68  146 1    
   137   69   70 am   BACKBONE|DICT|INTERRES
   138   69  147 1    
   139   70   71 2    
   140   70   72 1    
   141   72   73 1    
   142   72   74 1    
   143   72  148 1    
   144   73  149 1    
   145   73  150 1    
   146   73  151 1    
   147   74   75 am   BACKBONE|DICT|INTERRES
   148   74  152 1    
   149   75   76 2    
   150   75   77 1    
   151   77   78 1    
   152   77   79 1    
   153   77  153 1    
   154   78  154 1    
   155   78  155 1    
   156   78  156 1    
   157   79   80 am   BACKBONE|DICT|INTERRES
   158   79  157 1    
   159   80   81 2    
@<TRIPOS>SUBSTRUCTURE
     1 UNK         1 GROUP             0       ****    0 ROOT    
