@<TRIPOS>MOLECULE
3R207
157   159    1
SMALL
USER_CHARGES


@<TRIPOS>ATOM
      1 CA        -49.9564  -31.3764    8.2281 C.3       0 UNK        -0.1975 
      2 C         -49.3808  -30.4988    7.1271 C.2       0 UNK         0.4852 
      3 O         -48.3920  -30.8780    6.4974 O.2       0 UNK        -0.5216 
      4 N         -50.0032  -29.3400    6.8800 N.am      1 UNK        -0.4461 
      5 CA        -49.5824  -28.3535    5.8787 C.3       1 UNK         0.0864 
      6 C6        -50.6810  -27.2917    5.6232 C.3       14 UNK        -0.0898 
      7 S7        -52.2464  -28.0161    5.0318 S.3       14 UNK        -0.2598 
      8 C8        -53.4130  -27.4887    6.3260 C.3       14 UNK         0.0286 
      9 C9        -53.3119  -28.3513    7.5757 C.ar      14 UNK        -0.0844 
     10 C10       -52.5474  -27.9349    8.6723 C.ar      14 UNK        -0.0881 
     11 C11       -52.4995  -28.7135    9.8327 C.ar      14 UNK        -0.0643 
     12 C12       -53.2167  -29.9093    9.8917 C.ar      14 UNK        -0.0930 
     13 C13       -53.9958  -30.3261    8.8112 C.ar      14 UNK        -0.0827 
     14 C14       -54.0297  -29.5500    7.6498 C.ar      14 UNK        -0.1249 
     15 C15       -54.8297  -31.5939    8.9247 C.3       14 UNK         0.0141 
     16 S16       -56.5570  -31.2316    9.3863 S.3       14 UNK        -0.2313 
     17 C17       -56.3403  -30.2814   10.9305 C.3       14 UNK        -0.0915 
     18 CA        -57.6689  -30.0759   11.7189 C.3       13 UNK         0.0968 
     19 C         -58.0116  -31.2296   12.7106 C.2       13 UNK         0.5732 
     20 N         -57.7060  -32.4727   12.3640 N.am      13 UNK        -0.7310 
     21 O         -58.5996  -31.0182   13.7705 O.2       13 UNK        -0.5035 
     22 N         -57.7496  -28.7355   12.3215 N.am      13 UNK        -0.4233 
     23 C         -56.9434  -28.2428   13.2704 C.2       13 UNK         0.4989 
     24 O         -55.9906  -28.8491   13.7687 O.2       13 UNK        -0.4996 
     25 CA        -57.2741  -26.8244   13.7499 C.3       12 UNK         0.0216 
     26 CB        -58.4257  -26.8387   14.7712 C.3       12 UNK        -0.1964 
     27 N         -56.0888  -26.2328   14.3649 N.am      12 UNK        -0.4276 
     28 C         -55.7100  -24.9543   14.2558 C.2       12 UNK         0.5020 
     29 O         -56.3542  -24.1086   13.6324 O.2       12 UNK        -0.5489 
     30 CA        -54.4128  -24.5206   14.9695 C.3       11 UNK         0.0294 
     31 CB        -54.7188  -23.4945   16.0743 C.3       11 UNK        -0.2019 
     32 N         -53.6390  -25.6211   15.5543 N.am      11 UNK        -0.4493 
     33 C         -52.8875  -26.4792   14.8555 C.2       11 UNK         0.4932 
     34 O         -52.7941  -26.4679   13.6292 O.2       11 UNK        -0.5029 
     35 CA        -52.0950  -27.5008   15.6748 C.3       10 UNK         0.0280 
     36 CB        -52.0769  -28.8885   15.0104 C.3       10 UNK        -0.1976 
     37 N         -50.7276  -27.0102   15.7991 N.am      10 UNK        -0.4242 
     38 C         -50.0543  -26.8576   16.9452 C.2       10 UNK         0.5072 
     39 O         -50.5183  -27.1145   18.0570 O.2       10 UNK        -0.5224 
     40 CA        -48.6168  -26.3289   16.8369 C.3       9 UNK         0.0343 
     41 CB        -47.6647  -27.4381   16.3576 C.3       9 UNK        -0.2003 
     42 N         -48.5328  -25.1893   15.9230 N.am      9 UNK        -0.4272 
     43 C         -48.5633  -23.9033   16.3001 C.2       9 UNK         0.4988 
     44 O         -48.6594  -23.5367   17.4721 O.2       9 UNK        -0.5108 
     45 CA        -48.4459  -22.8340   15.1970 C.3       8 UNK         0.0248 
     46 CB        -47.0017  -22.3148   15.1120 C.3       8 UNK        -0.2001 
     47 N         -48.8773  -23.3139   13.8798 N.am      8 UNK        -0.4140 
     48 C         -50.1660  -23.4767   13.5437 C.2       8 UNK         0.5028 
     49 O         -51.1007  -23.1497   14.2755 O.2       8 UNK        -0.5428 
     50 CA        -50.4881  -24.1261   12.1850 C.3       7 UNK         0.0264 
     51 CB        -50.8465  -23.0625   11.1355 C.3       7 UNK        -0.1988 
     52 N         -49.4638  -25.0315   11.6490 N.am      7 UNK        -0.4454 
     53 C         -49.0551  -26.1572   12.2577 C.2       7 UNK         0.5027 
     54 O         -49.3468  -26.4430   13.4191 O.2       7 UNK        -0.5083 
     55 CA        -48.1780  -27.1309   11.4506 C.3       6 UNK         0.0844 
     56 C56       -48.9973  -27.9352   10.4134 C.3       14 UNK        -0.0967 
     57 S57       -50.1308  -29.1294   11.1963 S.3       14 UNK        -0.2604 
     58 C58       -51.7218  -28.2595   11.0542 C.3       14 UNK         0.0134 
     59 N         -47.0719  -26.4006   10.8367 N.am      6 UNK        -0.4116 
     60 C         -45.8222  -26.3829   11.3208 C.2       5 UNK         0.5034 
     61 O         -45.4217  -27.1079   12.2323 O.2       5 UNK        -0.5045 
     62 CA        -44.8517  -25.3518   10.7164 C.3       5 UNK         0.0224 
     63 CB        -44.0441  -25.9763    9.5695 C.3       5 UNK        -0.1978 
     64 N         -45.5075  -24.1279   10.2442 N.am      5 UNK        -0.4737 
     65 C         -46.2269  -23.3013   11.0185 C.2       4 UNK         0.5027 
     66 O         -46.4132  -23.4782   12.2211 O.2       4 UNK        -0.5211 
     67 CA        -46.8977  -22.0974   10.3405 C.3       4 UNK         0.0297 
     68 CB        -46.0034  -20.8542   10.4641 C.3       4 UNK        -0.1993 
     69 N         -47.2520  -22.3016    8.9327 N.am      4 UNK        -0.4486 
     70 C         -48.0016  -23.2917    8.4263 C.2       3 UNK         0.4961 
     71 O         -48.4710  -24.2150    9.0979 O.2       3 UNK        -0.5105 
     72 CA        -48.2699  -23.2509    6.9082 C.3       3 UNK         0.0299 
     73 CB        -47.7217  -21.9929    6.1947 C.3       3 UNK        -0.1972 
     74 N         -47.7959  -24.4596    6.2289 N.am      3 UNK        -0.4305 
     75 C         -46.5600  -24.9855    6.2525 C.2       2 UNK         0.5006 
     76 O         -45.6146  -24.4885    6.8688 O.2       2 UNK        -0.5106 
     77 CA        -46.3491  -26.2738    5.4221 C.3       2 UNK         0.0296 
     78 CB        -45.1594  -27.1266    5.9139 C.3       2 UNK        -0.2002 
     79 N         -47.5611  -27.0983    5.2830 N.am      2 UNK        -0.4032 
     80 C         -48.2688  -27.6504    6.2818 C.2       1 UNK         0.5000 
     81 O         -47.9595  -27.5542    7.4704 O.2       1 UNK        -0.5238 
     82 H82       -50.8970  -30.9818    8.6097 H         1 UNK         0.0889 
     83 H83       -49.2549  -31.4432    9.0593 H         1 UNK         0.0889 
     84 H84       -50.1408  -32.3823    7.8524 H         1 UNK         0.0889 
     85 H85       -50.8192  -29.0892    7.4209 H         1 UNK         0.3028 
     86 H86       -49.3984  -28.8922    4.9464 H         1 UNK         0.0864 
     87 H87       -50.3580  -26.5814    4.8598 H         1 UNK         0.0720 
     88 H88       -50.8593  -26.7004    6.5229 H         1 UNK         0.0720 
     89 H89       -54.4259  -27.5518    5.9253 H         1 UNK         0.0814 
     90 H90       -53.2544  -26.4362    6.5661 H         1 UNK         0.0814 
     91 H91       -52.0089  -26.9979    8.6338 H         1 UNK         0.1469 
     92 H92       -53.1894  -30.5017   10.7961 H         1 UNK         0.1381 
     93 H93       -54.6379  -29.8657    6.8130 H         1 UNK         0.1206 
     94 H94       -54.3956  -32.2732    9.6601 H         1 UNK         0.0813 
     95 H95       -54.8199  -32.1279    7.9734 H         1 UNK         0.0813 
     96 H96       -55.5772  -30.7480   11.5561 H         1 UNK         0.0638 
     97 H97       -55.9309  -29.3134   10.6366 H         1 UNK         0.0638 
     98 H98       -58.4908  -30.0808   11.0024 H         1 UNK         0.0568 
     99 H99       -57.2511  -32.6577   11.4830 H         1 UNK         0.3450 
    100 H100      -57.9389  -33.2313   12.9852 H         1 UNK         0.3450 
    101 H101      -58.5268  -28.1718   12.0092 H         1 UNK         0.2987 
    102 H102      -57.5699  -26.2363   12.8782 H         1 UNK         0.0766 
    103 H103      -58.6744  -25.8298   15.1010 H         1 UNK         0.0798 
    104 H104      -58.1721  -27.4265   15.6545 H         1 UNK         0.0798 
    105 H105      -59.3304  -27.2701   14.3410 H         1 UNK         0.0798 
    106 H106      -55.4690  -26.8932   14.8157 H         1 UNK         0.3198 
    107 H107      -53.7886  -24.0305   14.2186 H         1 UNK         0.0843 
    108 H108      -55.3364  -23.9227   16.8647 H         1 UNK         0.0831 
    109 H109      -55.2552  -22.6338   15.6722 H         1 UNK         0.0831 
    110 H110      -53.8021  -23.1157   16.5272 H         1 UNK         0.0831 
    111 H111      -53.6513  -25.6956   16.5619 H         1 UNK         0.3133 
    112 H112      -52.5687  -27.6003   16.6537 H         1 UNK         0.0566 
    113 H113      -51.6329  -29.6333   15.6708 H         1 UNK         0.0814 
    114 H114      -53.0868  -29.2243   14.7698 H         1 UNK         0.0814 
    115 H115      -51.5005  -28.8843   14.0853 H         1 UNK         0.0814 
    116 H116      -50.2716  -26.7602   14.9211 H         1 UNK         0.3091 
    117 H117      -48.2954  -26.0266   17.8361 H         1 UNK         0.0702 
    118 H118      -47.7002  -28.2982   17.0275 H         1 UNK         0.0785 
    119 H119      -47.9195  -27.7927   15.3580 H         1 UNK         0.0785 
    120 H120      -46.6324  -27.0886   16.3334 H         1 UNK         0.0785 
    121 H121      -48.5279  -25.4085   14.9329 H         1 UNK         0.2998 
    122 H122      -49.0841  -21.9953   15.4836 H         1 UNK         0.0697 
    123 H123      -46.2988  -23.1148   14.8765 H         1 UNK         0.0825 
    124 H124      -46.6886  -21.8767   16.0606 H         1 UNK         0.0825 
    125 H125      -46.8998  -21.5431   14.3487 H         1 UNK         0.0825 
    126 H126      -48.1453  -23.5706   13.2232 H         1 UNK         0.3029 
    127 H127      -51.3808  -24.7330   12.3427 H         1 UNK         0.0897 
    128 H128      -51.1756  -23.5206   10.2026 H         1 UNK         0.0792 
    129 H129      -50.0039  -22.4120   10.9098 H         1 UNK         0.0792 
    130 H130      -51.6608  -22.4277   11.4879 H         1 UNK         0.0792 
    131 H131      -49.1446  -24.8314   10.7030 H         1 UNK         0.3086 
    132 H132      -47.7774  -27.8541   12.1645 H         1 UNK         0.0583 
    133 H133      -49.5322  -27.2821    9.7211 H         1 UNK         0.1020 
    134 H134      -48.3131  -28.5222    9.7999 H         1 UNK         0.1020 
    135 H135      -52.3156  -28.4738   11.9427 H         1 UNK         0.0694 
    136 H136      -51.5773  -27.1785   11.0481 H         1 UNK         0.0694 
    137 H137      -47.3094  -25.7615   10.0869 H         1 UNK         0.2989 
    138 H138      -44.1567  -25.0633   11.5081 H         1 UNK         0.1055 
    139 H139      -43.5085  -26.8653    9.9055 H         1 UNK         0.0806 
    140 H140      -43.3035  -25.2798    9.1760 H         1 UNK         0.0806 
    141 H141      -44.6920  -26.2768    8.7472 H         1 UNK         0.0806 
    142 H142      -45.4448  -23.9285    9.2533 H         1 UNK         0.3061 
    143 H143      -47.8204  -21.8981   10.8852 H         1 UNK         0.0734 
    144 H144      -46.5073  -19.9616   10.0930 H         1 UNK         0.0832 
    145 H145      -45.7415  -20.6644   11.5063 H         1 UNK         0.0832 
    146 H146      -45.0707  -20.9707    9.9105 H         1 UNK         0.0832 
    147 H147      -46.8990  -21.6141    8.2830 H         1 UNK         0.3156 
    148 H148      -49.3553  -23.2434    6.7990 H         1 UNK         0.0589 
    149 H149      -46.6334  -21.9333    6.2386 H         1 UNK         0.0808 
    150 H150      -48.0036  -21.9913    5.1416 H         1 UNK         0.0808 
    151 H151      -48.1289  -21.0784    6.6284 H         1 UNK         0.0808 
    152 H152      -48.4989  -24.9635    5.7100 H         1 UNK         0.3098 
    153 H153      -46.1022  -25.9285    4.4172 H         1 UNK         0.0720 
    154 H154      -44.9689  -27.9605    5.2385 H         1 UNK         0.0791 
    155 H155      -45.3388  -27.5403    6.9058 H         1 UNK         0.0791 
    156 H156      -44.2420  -26.5388    5.9644 H         1 UNK         0.0791 
    157 H157      -47.8947  -27.2198    4.3360 H         1 UNK         0.3028 
@<TRIPOS>BOND
     1    1    2 1    
     2    1   82 1    
     3    1   83 1    
     4    1   84 1    
     5    2    3 2    
     6    2    4 am   BACKBONE|DICT|INTERRES
     7    4    5 1    
     8    4   85 1    
     9    5    6 1    
    10    5   80 1    
    11    5   86 1    
    12    6    7 1    
    13    6   87 1    
    14    6   88 1    
    15    7    8 1    
    16    8    9 1    
    17    8   89 1    
    18    8   90 1    
    19    9   10 ar   
    20    9   14 ar   
    21   10   11 ar   
    22   10   91 1    
    23   11   12 ar   
    24   11   58 1    
    25   12   13 ar   
    26   12   92 1    
    27   13   14 ar   
    28   13   15 1    
    29   14   93 1    
    30   15   16 1    
    31   15   94 1    
    32   15   95 1    
    33   16   17 1    
    34   17   18 1    
    35   17   96 1    
    36   17   97 1    
    37   18   19 1    
    38   18   22 1    
    39   18   98 1    
    40   19   20 am   BACKBONE|DICT|INTERRES
    41   19   21 2    
    42   20   99 1    
    43   20  100 1    
    44   22   23 am   BACKBONE|DICT|INTERRES
    45   22  101 1    
    46   23   24 2    
    47   23   25 1    
    48   25   26 1    
    49   25   27 1    
    50   25  102 1    
    51   26  103 1    
    52   26  104 1    
    53   26  105 1    
    54   27   28 am   BACKBONE|DICT|INTERRES
    55   27  106 1    
    56   28   29 2    
    57   28   30 1    
    58   30   31 1    
    59   30   32 1    
    60   30  107 1    
    61   31  108 1    
    62   31  109 1    
    63   31  110 1    
    64   32   33 am   BACKBONE|DICT|INTERRES
    65   32  111 1    
    66   33   34 2    
    67   33   35 1    
    68   35   36 1    
    69   35   37 1    
    70   35  112 1    
    71   36  113 1    
    72   36  114 1    
    73   36  115 1    
    74   37   38 am   BACKBONE|DICT|INTERRES
    75   37  116 1    
    76   38   39 2    
    77   38   40 1    
    78   40   41 1    
    79   40   42 1    
    80   40  117 1    
    81   41  118 1    
    82   41  119 1    
    83   41  120 1    
    84   42   43 am   BACKBONE|DICT|INTERRES
    85   42  121 1    
    86   43   44 2    
    87   43   45 1    
    88   45   46 1    
    89   45   47 1    
    90   45  122 1    
    91   46  123 1    
    92   46  124 1    
    93   46  125 1    
    94   47   48 am   BACKBONE|DICT|INTERRES
    95   47  126 1    
    96   48   49 2    
    97   48   50 1    
    98   50   51 1    
    99   50   52 1    
   100   50  127 1    
   101   51  128 1    
   102   51  129 1    
   103   51  130 1    
   104   52   53 am   BACKBONE|DICT|INTERRES
   105   52  131 1    
   106   53   54 2    
   107   53   55 1    
   108   55   56 1    
   109   55   59 1    
   110   55  132 1    
   111   56   57 1    
   112   56  133 1    
   113   56  134 1    
   114   57   58 1    
   115   58  135 1    
   116   58  136 1    
   117   59   60 am   BACKBONE|DICT|INTERRES
   118   59  137 1    
   119   60   61 2    
   120   60   62 1    
   121   62   63 1    
   122   62   64 1    
   123   62  138 1    
   124   63  139 1    
   125   63  140 1    
   126   63  141 1    
   127   64   65 am   BACKBONE|DICT|INTERRES
   128   64  142 1    
   129   65   66 2    
   130   65   67 1    
   131   67   68 1    
   132   67   69 1    
   133   67  143 1    
   134   68  144 1    
   135   68  145 1    
   136   68  146 1    
   137   69   70 am   BACKBONE|DICT|INTERRES
   138   69  147 1    
   139   70   71 2    
   140   70   72 1    
   141   72   73 1    
   142   72   74 1    
   143   72  148 1    
   144   73  149 1    
   145   73  150 1    
   146   73  151 1    
   147   74   75 am   BACKBONE|DICT|INTERRES
   148   74  152 1    
   149   75   76 2    
   150   75   77 1    
   151   77   78 1    
   152   77   79 1    
   153   77  153 1    
   154   78  154 1    
   155   78  155 1    
   156   78  156 1    
   157   79   80 am   BACKBONE|DICT|INTERRES
   158   79  157 1    
   159   80   81 2    
@<TRIPOS>SUBSTRUCTURE
     1 UNK         1 GROUP             0       ****    0 ROOT    
