@<TRIPOS>MOLECULE
3R207
157   159    1
SMALL
USER_CHARGES


@<TRIPOS>ATOM
      1 CA        -48.7916  -31.2814    2.4872 C.3       0 UNK        -0.1975 
      2 C         -49.5220  -30.4366    3.5210 C.2       0 UNK         0.4852 
      3 O         -50.5356  -29.8191    3.1943 O.2       0 UNK        -0.5216 
      4 N         -49.0160  -30.4177    4.7613 N.am      1 UNK        -0.4461 
      5 CA        -49.5475  -29.6513    5.8935 C.3       1 UNK         0.0864 
      6 C6        -48.8935  -30.0957    7.2291 C.3       14 UNK        -0.0898 
      7 S7        -49.6117  -31.6616    7.8290 S.3       14 UNK        -0.2598 
      8 C8        -50.6602  -31.0924    9.2111 C.3       14 UNK         0.0286 
      9 C9        -51.6679  -30.0394    8.7699 C.ar      14 UNK        -0.0844 
     10 C10       -51.4265  -28.6876    9.0277 C.ar      14 UNK        -0.0881 
     11 C11       -52.3097  -27.7070    8.5733 C.ar      14 UNK        -0.0643 
     12 C12       -53.4685  -28.0877    7.8891 C.ar      14 UNK        -0.0930 
     13 C13       -53.7382  -29.4404    7.6519 C.ar      14 UNK        -0.0827 
     14 C14       -52.8292  -30.4106    8.0875 C.ar      14 UNK        -0.1249 
     15 C15       -54.9930  -29.8536    6.8940 C.3       14 UNK         0.0141 
     16 S16       -56.5025  -29.7251    7.9078 S.3       14 UNK        -0.2313 
     17 C17       -56.2517  -31.0383    9.1538 C.3       14 UNK        -0.0915 
     18 CA        -56.6754  -30.6028   10.5816 C.3       13 UNK         0.0968 
     19 C         -56.4628  -31.7628   11.5926 C.2       13 UNK         0.5732 
     20 N         -57.4473  -32.6376   11.7480 N.am      13 UNK        -0.7310 
     21 O         -55.4031  -31.9008   12.2015 O.2       13 UNK        -0.5035 
     22 N         -56.0113  -29.3559   10.9852 N.am      13 UNK        -0.4233 
     23 C         -56.3063  -28.6391   12.0749 C.2       13 UNK         0.4989 
     24 O         -57.1838  -28.9341   12.8910 O.2       13 UNK        -0.4996 
     25 CA        -55.5229  -27.3340   12.2382 C.3       12 UNK         0.0216 
     26 CB        -56.1491  -26.2264   11.3711 C.3       12 UNK        -0.1964 
     27 N         -55.5350  -26.9034   13.6362 N.am      12 UNK        -0.4276 
     28 C         -54.4498  -26.5541   14.3333 C.2       12 UNK         0.5020 
     29 O         -53.2995  -26.5889   13.8885 O.2       12 UNK        -0.5489 
     30 CA        -54.6744  -26.0892   15.7770 C.3       11 UNK         0.0294 
     31 CB        -54.8643  -27.2898   16.7233 C.3       11 UNK        -0.2019 
     32 N         -53.4964  -25.3227   16.1650 N.am      11 UNK        -0.4493 
     33 C         -53.3717  -24.4819   17.1968 C.2       11 UNK         0.4932 
     34 O         -54.2868  -24.2185   17.9789 O.2       11 UNK        -0.5029 
     35 CA        -51.9838  -23.8285   17.3717 C.3       10 UNK         0.0280 
     36 CB        -51.7474  -23.2627   18.7882 C.3       10 UNK        -0.1976 
     37 N         -50.8925  -24.7209   16.9578 N.am      10 UNK        -0.4242 
     38 C         -50.5588  -25.9010   17.5038 C.2       10 UNK         0.5072 
     39 O         -51.0571  -26.3546   18.5350 O.2       10 UNK        -0.5224 
     40 CA        -49.5173  -26.7466   16.7528 C.3       9 UNK         0.0343 
     41 CB        -50.2233  -27.6972   15.7721 C.3       9 UNK        -0.2003 
     42 N         -48.5204  -25.9529   16.0290 N.am      9 UNK        -0.4272 
     43 C         -47.5369  -25.2582   16.6192 C.2       9 UNK         0.4988 
     44 O         -47.3705  -25.2070   17.8386 O.2       9 UNK        -0.5108 
     45 CA        -46.5650  -24.5008   15.6983 C.3       8 UNK         0.0248 
     46 CB        -45.5462  -25.4667   15.0717 C.3       8 UNK        -0.2001 
     47 N         -47.2459  -23.7457   14.6445 N.am      8 UNK        -0.4140 
     48 C         -48.0187  -22.6711   14.8609 C.2       8 UNK         0.5028 
     49 O         -48.1982  -22.1657   15.9695 O.2       8 UNK        -0.5428 
     50 CA        -48.7354  -22.0681   13.6396 C.3       7 UNK         0.0264 
     51 CB        -47.7948  -21.1396   12.8555 C.3       7 UNK        -0.1988 
     52 N         -49.2933  -23.0810   12.7397 N.am      7 UNK        -0.4454 
     53 C         -50.2356  -23.9698   13.0884 C.2       7 UNK         0.5027 
     54 O         -50.7598  -24.0075   14.2021 O.2       7 UNK        -0.5083 
     55 CA        -50.6305  -25.0221   12.0346 C.3       6 UNK         0.0844 
     56 C56       -51.6393  -24.4405   11.0087 C.3       14 UNK        -0.0967 
     57 S57       -52.7709  -25.7213   10.3885 S.3       14 UNK        -0.2604 
     58 C58       -52.0002  -26.2422    8.8337 C.3       14 UNK         0.0134 
     59 N         -49.4456  -25.6076   11.3971 N.am      6 UNK        -0.4116 
     60 C         -48.5094  -26.3212   12.0412 C.2       5 UNK         0.5034 
     61 O         -48.5736  -26.6309   13.2295 O.2       5 UNK        -0.5045 
     62 CA        -47.2529  -26.6969   11.2430 C.3       5 UNK         0.0224 
     63 CB        -47.4815  -27.9733   10.4193 C.3       5 UNK        -0.1978 
     64 N         -46.8166  -25.6027   10.3722 N.am      5 UNK        -0.4737 
     65 C         -46.2656  -24.4673   10.8288 C.2       4 UNK         0.5027 
     66 O         -46.0338  -24.2573   12.0187 O.2       4 UNK        -0.5211 
     67 CA        -45.9600  -23.3619    9.8019 C.3       4 UNK         0.0297 
     68 CB        -44.5493  -23.5461    9.2215 C.3       4 UNK        -0.1993 
     69 N         -46.9324  -23.2996    8.7090 N.am      4 UNK        -0.4486 
     70 C         -48.2438  -23.0662    8.8593 C.2       3 UNK         0.4961 
     71 O         -48.7700  -22.7979    9.9391 O.2       3 UNK        -0.5105 
     72 CA        -49.1301  -23.2105    7.6082 C.3       3 UNK         0.0299 
     73 CB        -49.3781  -21.8353    6.9698 C.3       3 UNK        -0.1972 
     74 N         -48.6122  -24.1366    6.5910 N.am      3 UNK        -0.4305 
     75 C         -48.3311  -25.4320    6.7931 C.2       2 UNK         0.5006 
     76 O         -48.4022  -25.9851    7.8931 O.2       2 UNK        -0.5106 
     77 CA        -47.8226  -26.2205    5.5730 C.3       2 UNK         0.0296 
     78 CB        -46.2970  -26.0739    5.4485 C.3       2 UNK        -0.2002 
     79 N         -48.1576  -27.6444    5.6573 N.am      2 UNK        -0.4032 
     80 C         -49.4066  -28.1329    5.6653 C.2       1 UNK         0.5000 
     81 O         -50.4126  -27.4420    5.4909 O.2       1 UNK        -0.5238 
     82 H82       -47.9200  -31.7815    2.9094 H         1 UNK         0.0889 
     83 H83       -48.4557  -30.6555    1.6610 H         1 UNK         0.0889 
     84 H84       -49.4588  -32.0446    2.0874 H         1 UNK         0.0889 
     85 H85       -48.1938  -30.9695    4.9602 H         1 UNK         0.3028 
     86 H86       -50.6207  -29.8486    5.9537 H         1 UNK         0.0864 
     87 H87       -47.8170  -30.2311    7.1123 H         1 UNK         0.0720 
     88 H88       -49.0024  -29.3368    8.0028 H         1 UNK         0.0720 
     89 H89       -50.0232  -30.7055   10.0082 H         1 UNK         0.0814 
     90 H90       -51.1881  -31.9489    9.6328 H         1 UNK         0.0814 
     91 H91       -50.5392  -28.3908    9.5678 H         1 UNK         0.1469 
     92 H92       -54.1611  -27.3323    7.5440 H         1 UNK         0.1381 
     93 H93       -53.0170  -31.4565    7.8864 H         1 UNK         0.1206 
     94 H94       -55.1059  -29.2165    6.0157 H         1 UNK         0.0813 
     95 H95       -54.9004  -30.8734    6.5170 H         1 UNK         0.0813 
     96 H96       -55.2082  -31.3537    9.1530 H         1 UNK         0.0638 
     97 H97       -56.8292  -31.9082    8.8358 H         1 UNK         0.0638 
     98 H98       -57.7451  -30.3852   10.5563 H         1 UNK         0.0568 
     99 H99       -58.3154  -32.5421   11.2442 H         1 UNK         0.3450 
    100 H100      -57.3220  -33.4062   12.3880 H         1 UNK         0.3450 
    101 H101      -55.2801  -29.0360   10.3669 H         1 UNK         0.2987 
    102 H102      -54.4998  -27.5192   11.9052 H         1 UNK         0.0766 
    103 H103      -55.6160  -25.2830   11.4899 H         1 UNK         0.0798 
    104 H104      -57.1949  -26.0531   11.6280 H         1 UNK         0.0798 
    105 H105      -56.1091  -26.4870   10.3125 H         1 UNK         0.0798 
    106 H106      -56.4357  -26.9437   14.0949 H         1 UNK         0.3198 
    107 H107      -55.5516  -25.4395   15.8100 H         1 UNK         0.0843 
    108 H108      -55.7273  -27.8894   16.4313 H         1 UNK         0.0831 
    109 H109      -55.0302  -26.9661   17.7509 H         1 UNK         0.0831 
    110 H110      -53.9924  -27.9454   16.7171 H         1 UNK         0.0831 
    111 H111      -52.7187  -25.4452   15.5239 H         1 UNK         0.3133 
    112 H112      -51.9578  -22.9882   16.6766 H         1 UNK         0.0566 
    113 H113      -50.7569  -22.8159   18.8753 H         1 UNK         0.0814 
    114 H114      -52.4753  -22.4853   19.0232 H         1 UNK         0.0814 
    115 H115      -51.8382  -24.0323   19.5550 H         1 UNK         0.0814 
    116 H116      -50.4700  -24.4789   16.0649 H         1 UNK         0.3091 
    117 H117      -48.9925  -27.3544   17.4930 H         1 UNK         0.0702 
    118 H118      -49.5142  -28.3759   15.2980 H         1 UNK         0.0785 
    119 H119      -50.7399  -27.1498   14.9821 H         1 UNK         0.0785 
    120 H120      -50.9671  -28.3096   16.2839 H         1 UNK         0.0785 
    121 H121      -48.5582  -25.9952   15.0130 H         1 UNK         0.2998 
    122 H122      -46.0143  -23.7869   16.3146 H         1 UNK         0.0697 
    123 H123      -46.0265  -26.1896   14.4115 H         1 UNK         0.0825 
    124 H124      -45.0152  -26.0286   15.8412 H         1 UNK         0.0825 
    125 H125      -44.7981  -24.9292   14.4886 H         1 UNK         0.0825 
    126 H126      -47.0857  -24.0491   13.6881 H         1 UNK         0.3029 
    127 H127      -49.5698  -21.4697   14.0119 H         1 UNK         0.0897 
    128 H128      -48.3074  -20.6723   12.0143 H         1 UNK         0.0792 
    129 H129      -47.4185  -20.3385   13.4930 H         1 UNK         0.0792 
    130 H130      -46.9310  -21.6768   12.4644 H         1 UNK         0.0792 
    131 H131      -48.9587  -23.0768   11.7780 H         1 UNK         0.3086 
    132 H132      -51.1208  -25.8264   12.5867 H         1 UNK         0.0583 
    133 H133      -52.2760  -23.6836   11.4721 H         1 UNK         0.1020 
    134 H134      -51.1391  -23.9365   10.1818 H         1 UNK         0.1020 
    135 H135      -52.3639  -25.6197    8.0149 H         1 UNK         0.0694 
    136 H136      -50.9210  -26.0942    8.8808 H         1 UNK         0.0694 
    137 H137      -49.2844  -25.3747   10.4283 H         1 UNK         0.2989 
    138 H138      -46.4550  -26.8991   11.9613 H         1 UNK         0.1055 
    139 H139      -47.7702  -28.8061   11.0620 H         1 UNK         0.0806 
    140 H140      -46.5772  -28.2708    9.8883 H         1 UNK         0.0806 
    141 H141      -48.2722  -27.8409    9.6835 H         1 UNK         0.0806 
    142 H142      -47.0515  -25.6821    9.3878 H         1 UNK         0.3061 
    143 H143      -45.9919  -22.4052   10.3267 H         1 UNK         0.0734 
    144 H144      -43.8027  -23.5747   10.0167 H         1 UNK         0.0832 
    145 H145      -44.4609  -24.4763    8.6587 H         1 UNK         0.0832 
    146 H146      -44.2810  -22.7235    8.5583 H         1 UNK         0.0832 
    147 H147      -46.5924  -23.5092    7.7823 H         1 UNK         0.3156 
    148 H148      -50.0911  -23.6072    7.9410 H         1 UNK         0.0589 
    149 H149      -48.4579  -21.3983    6.5799 H         1 UNK         0.0808 
    150 H150      -50.0945  -21.8998    6.1506 H         1 UNK         0.0808 
    151 H151      -49.7875  -21.1346    7.6993 H         1 UNK         0.0808 
    152 H152      -48.5041  -23.7613    5.6592 H         1 UNK         0.3098 
    153 H153      -48.2933  -25.8177    4.6738 H         1 UNK         0.0720 
    154 H154      -45.9175  -26.6022    4.5736 H         1 UNK         0.0791 
    155 H155      -45.7808  -26.4646    6.3268 H         1 UNK         0.0791 
    156 H156      -46.0089  -25.0274    5.3401 H         1 UNK         0.0791 
    157 H157      -47.3891  -28.2798    5.8106 H         1 UNK         0.3028 
@<TRIPOS>BOND
     1    1    2 1    
     2    1   82 1    
     3    1   83 1    
     4    1   84 1    
     5    2    3 2    
     6    2    4 am   BACKBONE|DICT|INTERRES
     7    4    5 1    
     8    4   85 1    
     9    5    6 1    
    10    5   80 1    
    11    5   86 1    
    12    6    7 1    
    13    6   87 1    
    14    6   88 1    
    15    7    8 1    
    16    8    9 1    
    17    8   89 1    
    18    8   90 1    
    19    9   10 ar   
    20    9   14 ar   
    21   10   11 ar   
    22   10   91 1    
    23   11   12 ar   
    24   11   58 1    
    25   12   13 ar   
    26   12   92 1    
    27   13   14 ar   
    28   13   15 1    
    29   14   93 1    
    30   15   16 1    
    31   15   94 1    
    32   15   95 1    
    33   16   17 1    
    34   17   18 1    
    35   17   96 1    
    36   17   97 1    
    37   18   19 1    
    38   18   22 1    
    39   18   98 1    
    40   19   20 am   BACKBONE|DICT|INTERRES
    41   19   21 2    
    42   20   99 1    
    43   20  100 1    
    44   22   23 am   BACKBONE|DICT|INTERRES
    45   22  101 1    
    46   23   24 2    
    47   23   25 1    
    48   25   26 1    
    49   25   27 1    
    50   25  102 1    
    51   26  103 1    
    52   26  104 1    
    53   26  105 1    
    54   27   28 am   BACKBONE|DICT|INTERRES
    55   27  106 1    
    56   28   29 2    
    57   28   30 1    
    58   30   31 1    
    59   30   32 1    
    60   30  107 1    
    61   31  108 1    
    62   31  109 1    
    63   31  110 1    
    64   32   33 am   BACKBONE|DICT|INTERRES
    65   32  111 1    
    66   33   34 2    
    67   33   35 1    
    68   35   36 1    
    69   35   37 1    
    70   35  112 1    
    71   36  113 1    
    72   36  114 1    
    73   36  115 1    
    74   37   38 am   BACKBONE|DICT|INTERRES
    75   37  116 1    
    76   38   39 2    
    77   38   40 1    
    78   40   41 1    
    79   40   42 1    
    80   40  117 1    
    81   41  118 1    
    82   41  119 1    
    83   41  120 1    
    84   42   43 am   BACKBONE|DICT|INTERRES
    85   42  121 1    
    86   43   44 2    
    87   43   45 1    
    88   45   46 1    
    89   45   47 1    
    90   45  122 1    
    91   46  123 1    
    92   46  124 1    
    93   46  125 1    
    94   47   48 am   BACKBONE|DICT|INTERRES
    95   47  126 1    
    96   48   49 2    
    97   48   50 1    
    98   50   51 1    
    99   50   52 1    
   100   50  127 1    
   101   51  128 1    
   102   51  129 1    
   103   51  130 1    
   104   52   53 am   BACKBONE|DICT|INTERRES
   105   52  131 1    
   106   53   54 2    
   107   53   55 1    
   108   55   56 1    
   109   55   59 1    
   110   55  132 1    
   111   56   57 1    
   112   56  133 1    
   113   56  134 1    
   114   57   58 1    
   115   58  135 1    
   116   58  136 1    
   117   59   60 am   BACKBONE|DICT|INTERRES
   118   59  137 1    
   119   60   61 2    
   120   60   62 1    
   121   62   63 1    
   122   62   64 1    
   123   62  138 1    
   124   63  139 1    
   125   63  140 1    
   126   63  141 1    
   127   64   65 am   BACKBONE|DICT|INTERRES
   128   64  142 1    
   129   65   66 2    
   130   65   67 1    
   131   67   68 1    
   132   67   69 1    
   133   67  143 1    
   134   68  144 1    
   135   68  145 1    
   136   68  146 1    
   137   69   70 am   BACKBONE|DICT|INTERRES
   138   69  147 1    
   139   70   71 2    
   140   70   72 1    
   141   72   73 1    
   142   72   74 1    
   143   72  148 1    
   144   73  149 1    
   145   73  150 1    
   146   73  151 1    
   147   74   75 am   BACKBONE|DICT|INTERRES
   148   74  152 1    
   149   75   76 2    
   150   75   77 1    
   151   77   78 1    
   152   77   79 1    
   153   77  153 1    
   154   78  154 1    
   155   78  155 1    
   156   78  156 1    
   157   79   80 am   BACKBONE|DICT|INTERRES
   158   79  157 1    
   159   80   81 2    
@<TRIPOS>SUBSTRUCTURE
     1 UNK         1 GROUP             0       ****    0 ROOT    
