@<TRIPOS>MOLECULE
3R207
157   159    1
SMALL
USER_CHARGES


@<TRIPOS>ATOM
      1 CA        -49.5064  -20.7800    4.9065 C.3       0 UNK        -0.1975 
      2 C         -49.1304  -21.1452    6.3343 C.2       0 UNK         0.4852 
      3 O         -48.3552  -20.4281    6.9690 O.2       0 UNK        -0.5216 
      4 N         -49.6586  -22.2652    6.8439 N.am      1 UNK        -0.4461 
      5 CA        -49.4143  -22.8073    8.1858 C.3       1 UNK         0.0864 
      6 C6        -50.5707  -23.7360    8.6396 C.3       14 UNK        -0.0898 
      7 S7        -50.9817  -25.0643    7.4499 S.3       14 UNK        -0.2598 
      8 C8        -52.5295  -25.7280    8.1558 C.3       14 UNK         0.0286 
      9 C9        -52.3843  -26.6987    9.3321 C.ar      14 UNK        -0.0844 
     10 C10       -51.1793  -26.9112   10.0160 C.ar      14 UNK        -0.0881 
     11 C11       -51.1183  -27.7952   11.0963 C.ar      14 UNK        -0.0643 
     12 C12       -52.2676  -28.4846   11.4896 C.ar      14 UNK        -0.0930 
     13 C13       -53.4797  -28.2965   10.8152 C.ar      14 UNK        -0.0827 
     14 C14       -53.5243  -27.3957    9.7463 C.ar      14 UNK        -0.1249 
     15 C15       -54.7652  -29.0150   11.2286 C.3       14 UNK         0.0141 
     16 S16       -54.5219  -30.7022   11.8833 S.3       14 UNK        -0.2313 
     17 C17       -54.2861  -30.3893   13.6679 C.3       14 UNK        -0.0915 
     18 CA        -55.4048  -31.0348   14.5287 C.3       13 UNK         0.0968 
     19 C         -55.0732  -30.9709   16.0491 C.2       13 UNK         0.5732 
     20 N         -55.9253  -30.4246   16.9099 N.am      13 UNK        -0.7310 
     21 O         -54.0182  -31.4448   16.4635 O.2       13 UNK        -0.5035 
     22 N         -56.7340  -30.5052   14.1879 N.am      13 UNK        -0.4233 
     23 C         -57.8744  -31.2011   14.2947 C.2       13 UNK         0.4989 
     24 O         -57.9154  -32.3959   14.5956 O.2       13 UNK        -0.4996 
     25 CA        -59.1918  -30.4391   14.0263 C.3       12 UNK         0.0216 
     26 CB        -60.4063  -31.0928   14.7207 C.3       12 UNK        -0.1964 
     27 N         -59.1274  -29.0067   14.3499 N.am      12 UNK        -0.4276 
     28 C         -58.8091  -28.4619   15.5328 C.2       12 UNK         0.5020 
     29 O         -58.5410  -29.1076   16.5489 O.2       12 UNK        -0.5489 
     30 CA        -58.7097  -26.9285   15.5677 C.3       11 UNK         0.0294 
     31 CB        -59.7105  -26.3367   16.5740 C.3       11 UNK        -0.2019 
     32 N         -57.3548  -26.4852   15.9076 N.am      11 UNK        -0.4493 
     33 C         -56.2470  -26.7874   15.2168 C.2       11 UNK         0.4932 
     34 O         -56.2361  -27.4930   14.2046 O.2       11 UNK        -0.5029 
     35 CA        -54.9282  -26.2304   15.7775 C.3       10 UNK         0.0280 
     36 CB        -54.2887  -27.2319   16.7513 C.3       10 UNK        -0.1976 
     37 N         -53.9660  -25.9237   14.7203 N.am      10 UNK        -0.4242 
     38 C         -54.0969  -24.9644   13.7971 C.2       10 UNK         0.5072 
     39 O         -55.0344  -24.1637   13.7694 O.2       10 UNK        -0.5224 
     40 CA        -52.9625  -24.8682   12.7576 C.3       9 UNK         0.0343 
     41 CB        -53.2935  -23.9019   11.6064 C.3       9 UNK        -0.2003 
     42 N         -51.6875  -24.4696   13.3604 N.am      9 UNK        -0.4272 
     43 C         -50.9134  -25.2402   14.1344 C.2       9 UNK         0.4988 
     44 O         -51.1681  -26.4161   14.4041 O.2       9 UNK        -0.5108 
     45 CA        -49.6431  -24.5853   14.6996 C.3       8 UNK         0.0248 
     46 CB        -49.2733  -25.1559   16.0806 C.3       8 UNK        -0.2001 
     47 N         -48.5078  -24.7619   13.7971 N.am      8 UNK        -0.4140 
     48 C         -48.3117  -24.1141   12.6440 C.2       8 UNK         0.5028 
     49 O         -49.0904  -23.2739   12.1916 O.2       8 UNK        -0.5428 
     50 CA        -47.0225  -24.4353   11.8663 C.3       7 UNK         0.0264 
     51 CB        -45.8067  -23.7101   12.4747 C.3       7 UNK        -0.1988 
     52 N         -46.7463  -25.8646   11.6556 N.am      7 UNK        -0.4454 
     53 C         -46.4401  -26.8074   12.5623 C.2       7 UNK         0.5027 
     54 O         -46.4124  -26.6056   13.7775 O.2       7 UNK        -0.5083 
     55 CA        -46.1025  -28.2195   12.0350 C.3       6 UNK         0.0844 
     56 C56       -47.3006  -29.1924   12.1744 C.3       14 UNK        -0.0967 
     57 S57       -48.6186  -28.9670   10.9279 S.3       14 UNK        -0.2604 
     58 C58       -49.8195  -27.9775   11.8641 C.3       14 UNK         0.0134 
     59 N         -45.5433  -28.2163   10.6802 N.am      6 UNK        -0.4116 
     60 C         -44.3528  -27.7161   10.3275 C.2       5 UNK         0.5034 
     61 O         -43.5559  -27.2287   11.1297 O.2       5 UNK        -0.5045 
     62 CA        -43.9824  -27.7338    8.8333 C.3       5 UNK         0.0224 
     63 CB        -43.1588  -28.9869    8.4767 C.3       5 UNK        -0.1978 
     64 N         -45.1148  -27.5436    7.9120 N.am      5 UNK        -0.4737 
     65 C         -46.1381  -28.3695    7.6404 C.2       4 UNK         0.5027 
     66 O         -46.2722  -29.4716    8.1710 O.2       4 UNK        -0.5211 
     67 CA        -47.2177  -27.8833    6.6539 C.3       4 UNK         0.0297 
     68 CB        -48.6039  -27.8911    7.3186 C.3       4 UNK        -0.1993 
     69 N         -46.9487  -26.5393    6.1358 N.am      4 UNK        -0.4486 
     70 C         -46.1972  -26.2782    5.0552 C.2       3 UNK         0.4961 
     71 O         -45.7131  -27.1513    4.3348 O.2       3 UNK        -0.5105 
     72 CA        -45.9099  -24.7994    4.7257 C.3       3 UNK         0.0299 
     73 CB        -46.8843  -24.2932    3.6496 C.3       3 UNK        -0.1972 
     74 N         -45.9761  -23.9053    5.8841 N.am      3 UNK        -0.4305 
     75 C         -45.2020  -23.9771    6.9773 C.2       2 UNK         0.5006 
     76 O         -44.2771  -24.7780    7.1083 O.2       2 UNK        -0.5106 
     77 CA        -45.5586  -23.0414    8.1471 C.3       2 UNK         0.0296 
     78 CB        -44.6646  -21.7922    8.1338 C.3       2 UNK        -0.2002 
     79 N         -46.9676  -22.6311    8.1596 N.am      2 UNK        -0.4032 
     80 C         -48.0153  -23.4579    8.2863 C.2       1 UNK         0.5000 
     81 O         -47.8897  -24.6765    8.4303 O.2       1 UNK        -0.5238 
     82 H82       -49.9866  -19.8021    4.8844 H         1 UNK         0.0889 
     83 H83       -50.1919  -21.5046    4.4674 H         1 UNK         0.0889 
     84 H84       -48.6139  -20.7359    4.2829 H         1 UNK         0.0889 
     85 H85       -50.2728  -22.8302    6.2733 H         1 UNK         0.3028 
     86 H86       -49.4021  -21.9691    8.8866 H         1 UNK         0.0864 
     87 H87       -51.4672  -23.1307    8.7803 H         1 UNK         0.0720 
     88 H88       -50.3511  -24.1636    9.6187 H         1 UNK         0.0720 
     89 H89       -53.0552  -26.2429    7.3504 H         1 UNK         0.0814 
     90 H90       -53.1717  -24.8986    8.4549 H         1 UNK         0.0814 
     91 H91       -50.2772  -26.3952    9.7243 H         1 UNK         0.1469 
     92 H92       -52.2114  -29.1586   12.3313 H         1 UNK         0.1381 
     93 H93       -54.4602  -27.2326    9.2289 H         1 UNK         0.1206 
     94 H94       -55.4244  -29.1008   10.3635 H         1 UNK         0.0813 
     95 H95       -55.3011  -28.4036   11.9537 H         1 UNK         0.0813 
     96 H96       -54.2244  -29.3169   13.8594 H         1 UNK         0.0638 
     97 H97       -53.3114  -30.8003   13.9370 H         1 UNK         0.0638 
     98 H98       -55.4000  -32.0999   14.2900 H         1 UNK         0.0568 
     99 H99       -56.8156  -30.0388   16.6109 H         1 UNK         0.3450 
    100 H100      -55.6849  -30.4127   17.8875 H         1 UNK         0.3450 
    101 H101      -56.7703  -29.5127   13.9846 H         1 UNK         0.2987 
    102 H102      -59.3554  -30.5012   12.9494 H         1 UNK         0.0766 
    103 H103      -61.3272  -30.5522   14.5021 H         1 UNK         0.0798 
    104 H104      -60.2839  -31.1222   15.8040 H         1 UNK         0.0798 
    105 H105      -60.5486  -32.1196   14.3814 H         1 UNK         0.0798 
    106 H106      -59.2882  -28.3817   13.5712 H         1 UNK         0.3198 
    107 H107      -58.9470  -26.5314   14.5784 H         1 UNK         0.0843 
    108 H108      -59.5034  -26.6682   17.5925 H         1 UNK         0.0831 
    109 H109      -60.7300  -26.6422   16.3344 H         1 UNK         0.0831 
    110 H110      -59.6897  -25.2468   16.5636 H         1 UNK         0.0831 
    111 H111      -57.2624  -25.9337   16.7483 H         1 UNK         0.3133 
    112 H112      -55.1401  -25.3048   16.3167 H         1 UNK         0.0566 
    113 H113      -53.3993  -26.8135   17.2229 H         1 UNK         0.0814 
    114 H114      -54.9810  -27.5045   17.5491 H         1 UNK         0.0814 
    115 H115      -53.9953  -28.1520   16.2454 H         1 UNK         0.0814 
    116 H116      -53.1239  -26.4898   14.6800 H         1 UNK         0.3091 
    117 H117      -52.8423  -25.8617   12.3269 H         1 UNK         0.0702 
    118 H118      -52.5074  -23.9083   10.8533 H         1 UNK         0.0785 
    119 H119      -53.4161  -22.8768   11.9576 H         1 UNK         0.0785 
    120 H120      -54.2190  -24.1934   11.1079 H         1 UNK         0.0785 
    121 H121      -51.3705  -23.5306   13.1606 H         1 UNK         0.2998 
    122 H122      -49.8307  -23.5161   14.8200 H         1 UNK         0.0697 
    123 H123      -49.0145  -26.2144   16.0259 H         1 UNK         0.0825 
    124 H124      -50.1058  -25.0593   16.7788 H         1 UNK         0.0825 
    125 H125      -48.4240  -24.6270   16.5134 H         1 UNK         0.0825 
    126 H126      -47.8105  -25.4558   14.0583 H         1 UNK         0.3029 
    127 H127      -47.1627  -24.0191   10.8722 H         1 UNK         0.0897 
    128 H128      -45.9848  -22.6354   12.5329 H         1 UNK         0.0792 
    129 H129      -44.9141  -23.8576   11.8665 H         1 UNK         0.0792 
    130 H130      -45.5845  -24.0561   13.4845 H         1 UNK         0.0792 
    131 H131      -46.7920  -26.1624   10.6903 H         1 UNK         0.3086 
    132 H132      -45.3153  -28.5967   12.6916 H         1 UNK         0.0583 
    133 H133      -46.9348  -30.2147   12.0663 H         1 UNK         0.1020 
    134 H134      -47.7224  -29.1507   13.1808 H         1 UNK         0.1020 
    135 H135      -50.0117  -28.4532   12.8272 H         1 UNK         0.0694 
    136 H136      -49.3939  -26.9990   12.0830 H         1 UNK         0.0694 
    137 H137      -46.1057  -28.6511    9.9545 H         1 UNK         0.2989 
    138 H138      -43.3365  -26.8682    8.6748 H         1 UNK         0.1055 
    139 H139      -42.2554  -29.0426    9.0856 H         1 UNK         0.0806 
    140 H140      -42.8450  -28.9711    7.4330 H         1 UNK         0.0806 
    141 H141      -43.7172  -29.9079    8.6462 H         1 UNK         0.0806 
    142 H142      -45.1043  -26.6478    7.4353 H         1 UNK         0.3061 
    143 H143      -47.2404  -28.5946    5.8257 H         1 UNK         0.0734 
    144 H144      -49.3817  -27.5785    6.6223 H         1 UNK         0.0832 
    145 H145      -48.8688  -28.8894    7.6694 H         1 UNK         0.0832 
    146 H146      -48.6391  -27.2269    8.1819 H         1 UNK         0.0832 
    147 H147      -47.2978  -25.7704    6.6989 H         1 UNK         0.3156 
    148 H148      -44.8955  -24.7448    4.3253 H         1 UNK         0.0589 
    149 H149      -47.9165  -24.3020    4.0024 H         1 UNK         0.0808 
    150 H150      -46.6425  -23.2764    3.3393 H         1 UNK         0.0808 
    151 H151      -46.8402  -24.9201    2.7577 H         1 UNK         0.0808 
    152 H152      -46.7040  -23.2070    5.8712 H         1 UNK         0.3098 
    153 H153      -45.3654  -23.5916    9.0704 H         1 UNK         0.0720 
    154 H154      -44.8354  -21.1826    7.2455 H         1 UNK         0.0791 
    155 H155      -43.6088  -22.0670    8.1441 H         1 UNK         0.0791 
    156 H156      -44.8435  -21.1677    9.0093 H         1 UNK         0.0791 
    157 H157      -47.1691  -21.6524    7.9729 H         1 UNK         0.3028 
@<TRIPOS>BOND
     1    1    2 1    
     2    1   82 1    
     3    1   83 1    
     4    1   84 1    
     5    2    3 2    
     6    2    4 am   BACKBONE|DICT|INTERRES
     7    4    5 1    
     8    4   85 1    
     9    5    6 1    
    10    5   80 1    
    11    5   86 1    
    12    6    7 1    
    13    6   87 1    
    14    6   88 1    
    15    7    8 1    
    16    8    9 1    
    17    8   89 1    
    18    8   90 1    
    19    9   10 ar   
    20    9   14 ar   
    21   10   11 ar   
    22   10   91 1    
    23   11   12 ar   
    24   11   58 1    
    25   12   13 ar   
    26   12   92 1    
    27   13   14 ar   
    28   13   15 1    
    29   14   93 1    
    30   15   16 1    
    31   15   94 1    
    32   15   95 1    
    33   16   17 1    
    34   17   18 1    
    35   17   96 1    
    36   17   97 1    
    37   18   19 1    
    38   18   22 1    
    39   18   98 1    
    40   19   20 am   BACKBONE|DICT|INTERRES
    41   19   21 2    
    42   20   99 1    
    43   20  100 1    
    44   22   23 am   BACKBONE|DICT|INTERRES
    45   22  101 1    
    46   23   24 2    
    47   23   25 1    
    48   25   26 1    
    49   25   27 1    
    50   25  102 1    
    51   26  103 1    
    52   26  104 1    
    53   26  105 1    
    54   27   28 am   BACKBONE|DICT|INTERRES
    55   27  106 1    
    56   28   29 2    
    57   28   30 1    
    58   30   31 1    
    59   30   32 1    
    60   30  107 1    
    61   31  108 1    
    62   31  109 1    
    63   31  110 1    
    64   32   33 am   BACKBONE|DICT|INTERRES
    65   32  111 1    
    66   33   34 2    
    67   33   35 1    
    68   35   36 1    
    69   35   37 1    
    70   35  112 1    
    71   36  113 1    
    72   36  114 1    
    73   36  115 1    
    74   37   38 am   BACKBONE|DICT|INTERRES
    75   37  116 1    
    76   38   39 2    
    77   38   40 1    
    78   40   41 1    
    79   40   42 1    
    80   40  117 1    
    81   41  118 1    
    82   41  119 1    
    83   41  120 1    
    84   42   43 am   BACKBONE|DICT|INTERRES
    85   42  121 1    
    86   43   44 2    
    87   43   45 1    
    88   45   46 1    
    89   45   47 1    
    90   45  122 1    
    91   46  123 1    
    92   46  124 1    
    93   46  125 1    
    94   47   48 am   BACKBONE|DICT|INTERRES
    95   47  126 1    
    96   48   49 2    
    97   48   50 1    
    98   50   51 1    
    99   50   52 1    
   100   50  127 1    
   101   51  128 1    
   102   51  129 1    
   103   51  130 1    
   104   52   53 am   BACKBONE|DICT|INTERRES
   105   52  131 1    
   106   53   54 2    
   107   53   55 1    
   108   55   56 1    
   109   55   59 1    
   110   55  132 1    
   111   56   57 1    
   112   56  133 1    
   113   56  134 1    
   114   57   58 1    
   115   58  135 1    
   116   58  136 1    
   117   59   60 am   BACKBONE|DICT|INTERRES
   118   59  137 1    
   119   60   61 2    
   120   60   62 1    
   121   62   63 1    
   122   62   64 1    
   123   62  138 1    
   124   63  139 1    
   125   63  140 1    
   126   63  141 1    
   127   64   65 am   BACKBONE|DICT|INTERRES
   128   64  142 1    
   129   65   66 2    
   130   65   67 1    
   131   67   68 1    
   132   67   69 1    
   133   67  143 1    
   134   68  144 1    
   135   68  145 1    
   136   68  146 1    
   137   69   70 am   BACKBONE|DICT|INTERRES
   138   69  147 1    
   139   70   71 2    
   140   70   72 1    
   141   72   73 1    
   142   72   74 1    
   143   72  148 1    
   144   73  149 1    
   145   73  150 1    
   146   73  151 1    
   147   74   75 am   BACKBONE|DICT|INTERRES
   148   74  152 1    
   149   75   76 2    
   150   75   77 1    
   151   77   78 1    
   152   77   79 1    
   153   77  153 1    
   154   78  154 1    
   155   78  155 1    
   156   78  156 1    
   157   79   80 am   BACKBONE|DICT|INTERRES
   158   79  157 1    
   159   80   81 2    
@<TRIPOS>SUBSTRUCTURE
     1 UNK         1 GROUP             0       ****    0 ROOT    
