@<TRIPOS>MOLECULE
3R207
157   159    1
SMALL
USER_CHARGES


@<TRIPOS>ATOM
      1 CA        -50.7000  -29.2630    9.4139 C.3       0 UNK        -0.1975 
      2 C         -50.0190  -29.6396    8.1077 C.2       0 UNK         0.4852 
      3 O         -48.9519  -30.2524    8.1394 O.2       0 UNK        -0.5216 
      4 N         -50.6093  -29.2745    6.9586 N.am      1 UNK        -0.4461 
      5 CA        -50.0446  -29.5349    5.6244 C.3       1 UNK         0.0864 
      6 C6        -51.1373  -29.5800    4.5212 C.3       14 UNK        -0.0898 
      7 S7        -51.8653  -27.9624    4.0723 S.3       14 UNK        -0.2598 
      8 C8        -53.6258  -28.1995    4.4720 C.3       14 UNK         0.0286 
      9 C9        -53.8587  -28.2462    5.9731 C.ar      14 UNK        -0.0844 
     10 C10       -53.5827  -27.1212    6.7542 C.ar      14 UNK        -0.0881 
     11 C11       -53.7464  -27.1607    8.1408 C.ar      14 UNK        -0.0643 
     12 C12       -54.2487  -28.3195    8.7381 C.ar      14 UNK        -0.0930 
     13 C13       -54.5385  -29.4493    7.9657 C.ar      14 UNK        -0.0827 
     14 C14       -54.3362  -29.4095    6.5833 C.ar      14 UNK        -0.1249 
     15 C15       -55.0566  -30.7127    8.6326 C.3       14 UNK         0.0141 
     16 S16       -53.7311  -31.5446    9.5632 S.3       14 UNK        -0.2313 
     17 C17       -54.6963  -32.4555   10.8196 C.3       14 UNK        -0.0915 
     18 CA        -54.7813  -31.7362   12.1954 C.3       13 UNK         0.0968 
     19 C         -53.4343  -31.7757   12.9721 C.2       13 UNK         0.5732 
     20 N         -53.1022  -32.9114   13.5714 N.am      13 UNK        -0.7310 
     21 O         -52.6785  -30.8069   13.0147 O.2       13 UNK        -0.5035 
     22 N         -55.3289  -30.3818   12.0492 N.am      13 UNK        -0.4233 
     23 C         -55.8256  -29.6330   13.0374 C.2       13 UNK         0.4989 
     24 O         -55.9694  -30.0241   14.1987 O.2       13 UNK        -0.4996 
     25 CA        -56.2986  -28.2256   12.6326 C.3       12 UNK         0.0216 
     26 CB        -57.7363  -28.2746   12.0888 C.3       12 UNK        -0.1964 
     27 N         -56.2446  -27.2978   13.7627 N.am      12 UNK        -0.4276 
     28 C         -55.1149  -26.7600   14.2349 C.2       12 UNK         0.5020 
     29 O         -54.0086  -26.9035   13.7045 O.2       12 UNK        -0.5489 
     30 CA        -55.2399  -25.9310   15.5197 C.3       11 UNK         0.0294 
     31 CB        -55.5341  -26.8392   16.7318 C.3       11 UNK        -0.2019 
     32 N         -53.9779  -25.2277   15.7109 N.am      11 UNK        -0.4493 
     33 C         -53.7135  -24.2476   16.5809 C.2       11 UNK         0.4932 
     34 O         -54.5600  -23.7471   17.3234 O.2       11 UNK        -0.5029 
     35 CA        -52.2554  -23.7434   16.6192 C.3       10 UNK         0.0280 
     36 CB        -51.8722  -23.1034   17.9700 C.3       10 UNK        -0.1976 
     37 N         -51.2815  -24.7708   16.2275 N.am      10 UNK        -0.4242 
     38 C         -51.0370  -25.9430   16.8356 C.2       10 UNK         0.5072 
     39 O         -51.5785  -26.3135   17.8781 O.2       10 UNK        -0.5224 
     40 CA        -50.0197  -26.8709   16.1511 C.3       9 UNK         0.0343 
     41 CB        -50.7009  -27.6831   15.0368 C.3       9 UNK        -0.2003 
     42 N         -48.8710  -26.1481   15.6006 N.am      9 UNK        -0.4272 
     43 C         -47.9394  -25.5284   16.3403 C.2       9 UNK         0.4988 
     44 O         -47.9095  -25.5556   17.5714 O.2       9 UNK        -0.5108 
     45 CA        -46.8602  -24.7368   15.5828 C.3       8 UNK         0.0248 
     46 CB        -45.7583  -25.6765   15.0675 C.3       8 UNK        -0.2001 
     47 N         -47.4048  -23.9475   14.4744 N.am      8 UNK        -0.4140 
     48 C         -48.2347  -22.9037   14.6239 C.2       8 UNK         0.5028 
     49 O         -48.5846  -22.4558   15.7162 O.2       8 UNK        -0.5428 
     50 CA        -48.7878  -22.2564   13.3427 C.3       7 UNK         0.0264 
     51 CB        -47.7723  -21.2661   12.7510 C.3       7 UNK        -0.1988 
     52 N         -49.1801  -23.2333   12.3234 N.am      7 UNK        -0.4454 
     53 C         -50.1611  -24.1372   12.4726 C.2       7 UNK         0.5027 
     54 O         -50.8661  -24.2189   13.4786 O.2       7 UNK        -0.5083 
     55 CA        -50.3613  -25.1504   11.3279 C.3       6 UNK         0.0844 
     56 C56       -51.1870  -24.5209   10.1793 C.3       14 UNK        -0.0967 
     57 S57       -51.5271  -25.7182    8.8503 S.3       14 UNK        -0.2604 
     58 C58       -53.3226  -25.9734    8.9917 C.3       14 UNK         0.0134 
     59 N         -49.0813  -25.7093   10.8762 N.am      6 UNK        -0.4116 
     60 C         -48.2392  -26.4124   11.6479 C.2       5 UNK         0.5034 
     61 O         -48.4719  -26.7242   12.8149 O.2       5 UNK        -0.5045 
     62 CA        -46.8766  -26.7735   11.0404 C.3       5 UNK         0.0224 
     63 CB        -46.9707  -28.0259   10.1545 C.3       5 UNK        -0.1978 
     64 N         -46.3083  -25.6562   10.2837 N.am      5 UNK        -0.4737 
     65 C         -45.8426  -24.5317   10.8460 C.2       4 UNK         0.5027 
     66 O         -45.8077  -24.3412   12.0606 O.2       4 UNK        -0.5211 
     67 CA        -45.3696  -23.4182    9.8969 C.3       4 UNK         0.0297 
     68 CB        -43.9065  -23.6460    9.4860 C.3       4 UNK        -0.1993 
     69 N         -46.2040  -23.2985    8.6996 N.am      4 UNK        -0.4486 
     70 C         -47.4912  -22.9246    8.7066 C.2       3 UNK         0.4961 
     71 O         -48.1076  -22.5994    9.7211 O.2       3 UNK        -0.5105 
     72 CA        -48.2302  -22.9771    7.3582 C.3       3 UNK         0.0299 
     73 CB        -48.0054  -21.6785    6.5678 C.3       3 UNK        -0.1972 
     74 N         -47.8706  -24.1339    6.5267 N.am      3 UNK        -0.4305 
     75 C         -48.0090  -25.4101    6.9094 C.2       2 UNK         0.5006 
     76 O         -48.3739  -25.7530    8.0357 O.2       2 UNK        -0.5106 
     77 CA        -47.6548  -26.4945    5.8917 C.3       2 UNK         0.0296 
     78 CB        -46.2241  -27.0135    6.1312 C.3       2 UNK        -0.2002 
     79 N         -48.6343  -27.5591    6.0696 N.am      2 UNK        -0.4032 
     80 C         -48.8689  -28.5949    5.2558 C.2       1 UNK         0.5000 
     81 O         -48.2129  -28.8211    4.2364 O.2       1 UNK        -0.5238 
     82 H82       -51.6618  -28.7875    9.2451 H         1 UNK         0.0889 
     83 H83       -50.0779  -28.5694    9.9785 H         1 UNK         0.0889 
     84 H84       -50.8660  -30.1501   10.0246 H         1 UNK         0.0889 
     85 H85       -51.4928  -28.7800    6.9745 H         1 UNK         0.3028 
     86 H86       -49.6093  -30.5363    5.6565 H         1 UNK         0.0864 
     87 H87       -50.7162  -30.0081    3.6098 H         1 UNK         0.0720 
     88 H88       -51.9292  -30.2687    4.8192 H         1 UNK         0.0720 
     89 H89       -53.9921  -29.1045    3.9845 H         1 UNK         0.0814 
     90 H90       -54.1979  -27.3719    4.0504 H         1 UNK         0.0814 
     91 H91       -53.1935  -26.2262    6.2873 H         1 UNK         0.1469 
     92 H92       -54.3724  -28.3559    9.8106 H         1 UNK         0.1381 
     93 H93       -54.5474  -30.2846    5.9837 H         1 UNK         0.1206 
     94 H94       -55.4611  -31.4070    7.8944 H         1 UNK         0.0813 
     95 H95       -55.8864  -30.4521    9.2900 H         1 UNK         0.0813 
     96 H96       -55.7022  -32.6308   10.4351 H         1 UNK         0.0638 
     97 H97       -54.2568  -33.4480   10.9329 H         1 UNK         0.0638 
     98 H98       -55.4984  -32.2937   12.8015 H         1 UNK         0.0568 
     99 H99       -52.2280  -32.9614   14.0704 H         1 UNK         0.3450 
    100 H100      -53.7063  -33.7176   13.5377 H         1 UNK         0.3450 
    101 H101      -55.2140  -29.9748   11.1356 H         1 UNK         0.2987 
    102 H102      -55.6429  -27.8473   11.8453 H         1 UNK         0.0766 
    103 H103      -58.0763  -27.2871   11.7757 H         1 UNK         0.0798 
    104 H104      -58.4381  -28.6511   12.8343 H         1 UNK         0.0798 
    105 H105      -57.8051  -28.9286   11.2183 H         1 UNK         0.0798 
    106 H106      -57.1017  -27.1655   14.2800 H         1 UNK         0.3198 
    107 H107      -56.0404  -25.1994   15.3922 H         1 UNK         0.0843 
    108 H108      -54.7357  -27.5661   16.8882 H         1 UNK         0.0831 
    109 H109      -56.4609  -27.3977   16.5958 H         1 UNK         0.0831 
    110 H110      -55.6427  -26.2622   17.6501 H         1 UNK         0.0831 
    111 H111      -53.2458  -25.5555   15.0895 H         1 UNK         0.3133 
    112 H112      -52.1862  -22.9659   15.8572 H         1 UNK         0.0566 
    113 H113      -50.8397  -22.7532   17.9611 H         1 UNK         0.0814 
    114 H114      -52.5042  -22.2419   18.1885 H         1 UNK         0.0814 
    115 H115      -51.9824  -23.8052   18.7971 H         1 UNK         0.0814 
    116 H116      -50.8325  -24.6018   15.3297 H         1 UNK         0.3091 
    117 H117      -49.6484  -27.5704   16.9029 H         1 UNK         0.0702 
    118 H118      -51.5617  -28.2332   15.4200 H         1 UNK         0.0785 
    119 H119      -51.0591  -27.0427   14.2294 H         1 UNK         0.0785 
    120 H120      -50.0170  -28.4125   14.6026 H         1 UNK         0.0785 
    121 H121      -48.7797  -26.1413   14.5873 H         1 UNK         0.2998 
    122 H122      -46.4043  -24.0409   16.2902 H         1 UNK         0.0697 
    123 H123      -46.1404  -26.3804   14.3278 H         1 UNK         0.0825 
    124 H124      -45.3292  -26.2600   15.8831 H         1 UNK         0.0825 
    125 H125      -44.9442  -25.1168   14.6066 H         1 UNK         0.0825 
    126 H126      -47.0993  -24.2026   13.5392 H         1 UNK         0.3029 
    127 H127      -49.6835  -21.6966   13.6206 H         1 UNK         0.0897 
    128 H128      -48.1875  -20.7384   11.8922 H         1 UNK         0.0792 
    129 H129      -46.8610  -21.7684   12.4253 H         1 UNK         0.0792 
    130 H130      -47.4859  -20.5135   13.4869 H         1 UNK         0.0792 
    131 H131      -48.6817  -23.1901   11.4368 H         1 UNK         0.3086 
    132 H132      -50.9416  -25.9811   11.7362 H         1 UNK         0.0583 
    133 H133      -52.1311  -24.1234   10.5570 H         1 UNK         0.1020 
    134 H134      -50.6555  -23.6742    9.7413 H         1 UNK         0.1020 
    135 H135      -53.5838  -26.1343   10.0392 H         1 UNK         0.0694 
    136 H136      -53.8490  -25.0757    8.6647 H         1 UNK         0.0694 
    137 H137      -48.8306  -25.5454    9.9045 H         1 UNK         0.2989 
    138 H138      -46.1996  -26.9997   11.8673 H         1 UNK         0.1055 
    139 H139      -47.3653  -28.8722   10.7185 H         1 UNK         0.0806 
    140 H140      -45.9913  -28.3190    9.7766 H         1 UNK         0.0806 
    141 H141      -47.6275  -27.8773    9.2981 H         1 UNK         0.0806 
    142 H142      -46.3850  -25.7014    9.2774 H         1 UNK         0.3061 
    143 H143      -45.4277  -22.4731   10.4412 H         1 UNK         0.0734 
    144 H144      -43.5309  -22.8216    8.8797 H         1 UNK         0.0832 
    145 H145      -43.2634  -23.7185   10.3644 H         1 UNK         0.0832 
    146 H146      -43.7832  -24.5677    8.9159 H         1 UNK         0.0832 
    147 H147      -45.7838  -23.5503    7.8169 H         1 UNK         0.3156 
    148 H148      -49.2969  -23.0585    7.5781 H         1 UNK         0.0589 
    149 H149      -46.9613  -21.5553    6.2774 H         1 UNK         0.0808 
    150 H150      -48.6119  -21.6545    5.6623 H         1 UNK         0.0808 
    151 H151      -48.2828  -20.8073    7.1632 H         1 UNK         0.0808 
    152 H152      -47.5508  -23.9373    5.5888 H         1 UNK         0.3098 
    153 H153      -47.7454  -26.0932    4.8805 H         1 UNK         0.0720 
    154 H154      -45.9455  -27.7710    5.3988 H         1 UNK         0.0791 
    155 H155      -46.1173  -27.4552    7.1229 H         1 UNK         0.0791 
    156 H156      -45.4952  -26.2062    6.0507 H         1 UNK         0.0791 
    157 H157      -49.2175  -27.4419    6.8894 H         1 UNK         0.3028 
@<TRIPOS>BOND
     1    1    2 1    
     2    1   82 1    
     3    1   83 1    
     4    1   84 1    
     5    2    3 2    
     6    2    4 am   BACKBONE|DICT|INTERRES
     7    4    5 1    
     8    4   85 1    
     9    5    6 1    
    10    5   80 1    
    11    5   86 1    
    12    6    7 1    
    13    6   87 1    
    14    6   88 1    
    15    7    8 1    
    16    8    9 1    
    17    8   89 1    
    18    8   90 1    
    19    9   10 ar   
    20    9   14 ar   
    21   10   11 ar   
    22   10   91 1    
    23   11   12 ar   
    24   11   58 1    
    25   12   13 ar   
    26   12   92 1    
    27   13   14 ar   
    28   13   15 1    
    29   14   93 1    
    30   15   16 1    
    31   15   94 1    
    32   15   95 1    
    33   16   17 1    
    34   17   18 1    
    35   17   96 1    
    36   17   97 1    
    37   18   19 1    
    38   18   22 1    
    39   18   98 1    
    40   19   20 am   BACKBONE|DICT|INTERRES
    41   19   21 2    
    42   20   99 1    
    43   20  100 1    
    44   22   23 am   BACKBONE|DICT|INTERRES
    45   22  101 1    
    46   23   24 2    
    47   23   25 1    
    48   25   26 1    
    49   25   27 1    
    50   25  102 1    
    51   26  103 1    
    52   26  104 1    
    53   26  105 1    
    54   27   28 am   BACKBONE|DICT|INTERRES
    55   27  106 1    
    56   28   29 2    
    57   28   30 1    
    58   30   31 1    
    59   30   32 1    
    60   30  107 1    
    61   31  108 1    
    62   31  109 1    
    63   31  110 1    
    64   32   33 am   BACKBONE|DICT|INTERRES
    65   32  111 1    
    66   33   34 2    
    67   33   35 1    
    68   35   36 1    
    69   35   37 1    
    70   35  112 1    
    71   36  113 1    
    72   36  114 1    
    73   36  115 1    
    74   37   38 am   BACKBONE|DICT|INTERRES
    75   37  116 1    
    76   38   39 2    
    77   38   40 1    
    78   40   41 1    
    79   40   42 1    
    80   40  117 1    
    81   41  118 1    
    82   41  119 1    
    83   41  120 1    
    84   42   43 am   BACKBONE|DICT|INTERRES
    85   42  121 1    
    86   43   44 2    
    87   43   45 1    
    88   45   46 1    
    89   45   47 1    
    90   45  122 1    
    91   46  123 1    
    92   46  124 1    
    93   46  125 1    
    94   47   48 am   BACKBONE|DICT|INTERRES
    95   47  126 1    
    96   48   49 2    
    97   48   50 1    
    98   50   51 1    
    99   50   52 1    
   100   50  127 1    
   101   51  128 1    
   102   51  129 1    
   103   51  130 1    
   104   52   53 am   BACKBONE|DICT|INTERRES
   105   52  131 1    
   106   53   54 2    
   107   53   55 1    
   108   55   56 1    
   109   55   59 1    
   110   55  132 1    
   111   56   57 1    
   112   56  133 1    
   113   56  134 1    
   114   57   58 1    
   115   58  135 1    
   116   58  136 1    
   117   59   60 am   BACKBONE|DICT|INTERRES
   118   59  137 1    
   119   60   61 2    
   120   60   62 1    
   121   62   63 1    
   122   62   64 1    
   123   62  138 1    
   124   63  139 1    
   125   63  140 1    
   126   63  141 1    
   127   64   65 am   BACKBONE|DICT|INTERRES
   128   64  142 1    
   129   65   66 2    
   130   65   67 1    
   131   67   68 1    
   132   67   69 1    
   133   67  143 1    
   134   68  144 1    
   135   68  145 1    
   136   68  146 1    
   137   69   70 am   BACKBONE|DICT|INTERRES
   138   69  147 1    
   139   70   71 2    
   140   70   72 1    
   141   72   73 1    
   142   72   74 1    
   143   72  148 1    
   144   73  149 1    
   145   73  150 1    
   146   73  151 1    
   147   74   75 am   BACKBONE|DICT|INTERRES
   148   74  152 1    
   149   75   76 2    
   150   75   77 1    
   151   77   78 1    
   152   77   79 1    
   153   77  153 1    
   154   78  154 1    
   155   78  155 1    
   156   78  156 1    
   157   79   80 am   BACKBONE|DICT|INTERRES
   158   79  157 1    
   159   80   81 2    
@<TRIPOS>SUBSTRUCTURE
     1 UNK         1 GROUP             0       ****    0 ROOT    
