@<TRIPOS>MOLECULE
3R207
157   159    1
SMALL
USER_CHARGES


@<TRIPOS>ATOM
      1 CA        -50.3093  -27.4347    0.2823 C.3       0 UNK        -0.1975 
      2 C         -50.9897  -26.8592    1.5154 C.2       0 UNK         0.4852 
      3 O         -51.3383  -25.6781    1.5268 O.2       0 UNK        -0.5216 
      4 N         -51.1818  -27.6856    2.5523 N.am      1 UNK        -0.4461 
      5 CA        -51.8003  -27.3170    3.8322 C.3       1 UNK         0.0864 
      6 C6        -52.2001  -28.5529    4.6901 C.3       14 UNK        -0.0898 
      7 S7        -51.0685  -29.9919    4.5957 S.3       14 UNK        -0.2598 
      8 C8        -49.8736  -29.7048    5.9488 C.3       14 UNK         0.0286 
      9 C9        -50.3394  -30.0206    7.3713 C.ar      14 UNK        -0.0844 
     10 C10       -49.3672  -30.0833    8.3746 C.ar      14 UNK        -0.0881 
     11 C11       -49.7147  -30.3384    9.7049 C.ar      14 UNK        -0.0643 
     12 C12       -51.0600  -30.5382   10.0317 C.ar      14 UNK        -0.0930 
     13 C13       -52.0450  -30.4919    9.0411 C.ar      14 UNK        -0.0827 
     14 C14       -51.6796  -30.2372    7.7161 C.ar      14 UNK        -0.1249 
     15 C15       -53.5056  -30.7411    9.3863 C.3       14 UNK         0.0141 
     16 S16       -54.3704  -29.1942    9.7966 S.3       14 UNK        -0.2313 
     17 C17       -54.4079  -29.2829   11.6172 C.3       14 UNK        -0.0915 
     18 CA        -55.0519  -28.0194   12.2564 C.3       13 UNK         0.0968 
     19 C         -56.5987  -27.9213   12.1169 C.2       13 UNK         0.5732 
     20 N         -57.1807  -26.7928   12.5030 N.am      13 UNK        -0.7310 
     21 O         -57.2753  -28.8499   11.6801 O.2       13 UNK        -0.5035 
     22 N         -54.6141  -27.8021   13.6416 N.am      13 UNK        -0.4233 
     23 C         -54.8772  -28.5779   14.7027 C.2       13 UNK         0.4989 
     24 O         -55.4754  -29.6522   14.6440 O.2       13 UNK        -0.4996 
     25 CA        -54.3838  -28.0706   16.0713 C.3       12 UNK         0.0216 
     26 CB        -53.1438  -28.8560   16.5248 C.3       12 UNK        -0.1964 
     27 N         -54.0694  -26.6382   16.0460 N.am      12 UNK        -0.4276 
     28 C         -54.9763  -25.6692   16.2329 C.2       12 UNK         0.5020 
     29 O         -56.1392  -25.8733   16.5835 O.2       12 UNK        -0.5489 
     30 CA        -54.5223  -24.2329   15.9295 C.3       11 UNK         0.0294 
     31 CB        -53.7339  -23.6458   17.1090 C.3       11 UNK        -0.2019 
     32 N         -53.7226  -24.1486   14.7041 N.am      11 UNK        -0.4493 
     33 C         -54.2024  -24.3460   13.4679 C.2       11 UNK         0.4932 
     34 O         -55.3798  -24.6305   13.2435 O.2       11 UNK        -0.5029 
     35 CA        -53.2192  -24.2838   12.2810 C.3       10 UNK         0.0280 
     36 CB        -53.8372  -23.5880   11.0517 C.3       10 UNK        -0.1976 
     37 N         -51.8990  -23.7227   12.5832 N.am      10 UNK        -0.4242 
     38 C         -51.5913  -22.4900   13.0079 C.2       10 UNK         0.5072 
     39 O         -52.4169  -21.6055   13.2426 O.2       10 UNK        -0.5224 
     40 CA        -50.0889  -22.2421   13.2330 C.3       9 UNK         0.0343 
     41 CB        -49.7588  -20.7928   13.6494 C.3       9 UNK        -0.2003 
     42 N         -49.5226  -23.2124   14.1791 N.am      9 UNK        -0.4272 
     43 C         -49.8542  -23.3803   15.4695 C.2       9 UNK         0.4988 
     44 O         -50.6779  -22.6870   16.0672 O.2       9 UNK        -0.5108 
     45 CA        -49.1504  -24.5412   16.2013 C.3       8 UNK         0.0248 
     46 CB        -49.6662  -24.7651   17.6386 C.3       8 UNK        -0.2001 
     47 N         -49.1917  -25.7935   15.4401 N.am      8 UNK        -0.4140 
     48 C         -50.2788  -26.4395   14.9898 C.2       8 UNK         0.5028 
     49 O         -51.4376  -26.0829   15.2152 O.2       8 UNK        -0.5428 
     50 CA        -50.0427  -27.6818   14.1155 C.3       7 UNK         0.0264 
     51 CB        -50.9097  -27.6289   12.8488 C.3       7 UNK        -0.1988 
     52 N         -48.6433  -27.8096   13.7088 N.am      7 UNK        -0.4454 
     53 C         -47.8399  -28.8397   14.0108 C.2       7 UNK         0.5027 
     54 O         -48.1785  -29.7930   14.7136 O.2       7 UNK        -0.5083 
     55 CA        -46.4139  -28.8146   13.4143 C.3       6 UNK         0.0844 
     56 C56       -46.3187  -29.6691   12.1244 C.3       14 UNK        -0.0967 
     57 S57       -47.4080  -29.1181   10.7572 S.3       14 UNK        -0.2604 
     58 C58       -48.6404  -30.4658   10.7797 C.3       14 UNK         0.0134 
     59 N         -45.8963  -27.4605   13.2043 N.am      6 UNK        -0.4116 
     60 C         -45.6584  -26.5628   14.1710 C.2       5 UNK         0.5034 
     61 O         -45.8109  -26.7887   15.3713 O.2       5 UNK        -0.5045 
     62 CA        -45.2240  -25.1551   13.7251 C.3       5 UNK         0.0224 
     63 CB        -43.6940  -25.0225   13.7847 C.3       5 UNK        -0.1978 
     64 N         -45.6918  -24.7645   12.3883 N.am      5 UNK        -0.4737 
     65 C         -46.9731  -24.7062   11.9998 C.2       4 UNK         0.5027 
     66 O         -47.9067  -25.0383   12.7326 O.2       4 UNK        -0.5211 
     67 CA        -47.2623  -24.1919   10.5765 C.3       4 UNK         0.0297 
     68 CB        -46.0020  -23.8112    9.7722 C.3       4 UNK        -0.1993 
     69 N         -48.0278  -25.1695    9.8063 N.am      4 UNK        -0.4486 
     70 C         -49.3478  -25.3689    9.8814 C.2       3 UNK         0.4961 
     71 O         -50.0933  -24.7414   10.6333 O.2       3 UNK        -0.5105 
     72 CA        -49.9276  -26.4128    8.9094 C.3       3 UNK         0.0299 
     73 CB        -51.4299  -26.6708    9.1349 C.3       3 UNK        -0.1972 
     74 N         -49.7343  -26.0091    7.5156 N.am      3 UNK        -0.4305 
     75 C         -48.5981  -26.0704    6.8110 C.2       2 UNK         0.5006 
     76 O         -47.5368  -26.4937    7.2741 O.2       2 UNK        -0.5106 
     77 CA        -48.6750  -25.5960    5.3419 C.3       2 UNK         0.0296 
     78 CB        -47.3056  -25.6314    4.6381 C.3       2 UNK        -0.2002 
     79 N         -49.6325  -26.3785    4.5516 N.am      2 UNK        -0.4032 
     80 C         -50.9682  -26.3143    4.6572 C.2       1 UNK         0.5000 
     81 O         -51.5507  -25.5164    5.3956 O.2       1 UNK        -0.5238 
     82 H82       -49.3893  -26.8898    0.0728 H         1 UNK         0.0889 
     83 H83       -50.9642  -27.3441   -0.5839 H         1 UNK         0.0889 
     84 H84       -50.0586  -28.4878    0.4088 H         1 UNK         0.0889 
     85 H85       -50.8888  -28.6514    2.4860 H         1 UNK         0.3028 
     86 H86       -52.7247  -26.7880    3.5885 H         1 UNK         0.0864 
     87 H87       -53.1688  -28.9118    4.3393 H         1 UNK         0.0720 
     88 H88       -52.3683  -28.2772    5.7331 H         1 UNK         0.0720 
     89 H89       -49.5302  -28.6744    5.9186 H         1 UNK         0.0814 
     90 H90       -48.9972  -30.3176    5.7323 H         1 UNK         0.0814 
     91 H91       -48.3272  -29.9303    8.1195 H         1 UNK         0.1469 
     92 H92       -51.3418  -30.7484   11.0542 H         1 UNK         0.1381 
     93 H93       -52.4530  -30.2105    6.9633 H         1 UNK         0.1206 
     94 H94       -53.5876  -31.4538   10.2083 H         1 UNK         0.0813 
     95 H95       -54.0102  -31.2058    8.5379 H         1 UNK         0.0813 
     96 H96       -54.9268  -30.1905   11.9302 H         1 UNK         0.0638 
     97 H97       -53.3768  -29.3884   11.9567 H         1 UNK         0.0638 
     98 H98       -54.6626  -27.1607   11.7083 H         1 UNK         0.0568 
     99 H99       -58.1814  -26.7031   12.4316 H         1 UNK         0.3450 
    100 H100      -56.6240  -26.0135   12.8435 H         1 UNK         0.3450 
    101 H101      -54.1635  -26.9196   13.8226 H         1 UNK         0.2987 
    102 H102      -55.1799  -28.2524   16.7966 H         1 UNK         0.0766 
    103 H103      -52.3298  -28.7680   15.8080 H         1 UNK         0.0798 
    104 H104      -53.3717  -29.9177   16.6287 H         1 UNK         0.0798 
    105 H105      -52.7813  -28.5051   17.4912 H         1 UNK         0.0798 
    106 H106      -53.1180  -26.3767   15.7784 H         1 UNK         0.3198 
    107 H107      -55.4184  -23.6250   15.7859 H         1 UNK         0.0843 
    108 H108      -53.4617  -22.6061   16.9258 H         1 UNK         0.0831 
    109 H109      -52.8157  -24.2019   17.2949 H         1 UNK         0.0831 
    110 H110      -54.3241  -23.6716   18.0259 H         1 UNK         0.0831 
    111 H111      -52.7322  -23.9725   14.8156 H         1 UNK         0.3133 
    112 H112      -53.0283  -25.3205   12.0020 H         1 UNK         0.0566 
    113 H113      -54.7453  -24.0962   10.7251 H         1 UNK         0.0814 
    114 H114      -54.1025  -22.5522   11.2654 H         1 UNK         0.0814 
    115 H115      -53.1464  -23.5912   10.2083 H         1 UNK         0.0814 
    116 H116      -51.1180  -24.3168   12.3198 H         1 UNK         0.3091 
    117 H117      -49.5999  -22.4255   12.2752 H         1 UNK         0.0702 
    118 H118      -48.6851  -20.6508   13.7712 H         1 UNK         0.0785 
    119 H119      -50.2427  -20.5157   14.5864 H         1 UNK         0.0785 
    120 H120      -50.0964  -20.0859   12.8907 H         1 UNK         0.0785 
    121 H121      -48.8824  -23.8887   13.7649 H         1 UNK         0.2998 
    122 H122      -48.0991  -24.2583   16.2710 H         1 UNK         0.0697 
    123 H123      -49.0756  -25.5217   18.1547 H         1 UNK         0.0825 
    124 H124      -49.6030  -23.8491   18.2273 H         1 UNK         0.0825 
    125 H125      -50.7054  -25.0913   17.6512 H         1 UNK         0.0825 
    126 H126      -48.2920  -26.1782   15.1876 H         1 UNK         0.3029 
    127 H127      -50.3444  -28.5479   14.7054 H         1 UNK         0.0897 
    128 H128      -50.7314  -28.4893   12.2047 H         1 UNK         0.0792 
    129 H129      -51.9691  -27.6230   13.0962 H         1 UNK         0.0792 
    130 H130      -50.7036  -26.7289   12.2721 H         1 UNK         0.0792 
    131 H131      -48.2788  -27.0520   13.1389 H         1 UNK         0.3086 
    132 H132      -45.7627  -29.2803   14.1573 H         1 UNK         0.0583 
    133 H133      -45.2911  -29.6623   11.7576 H         1 UNK         0.1020 
    134 H134      -46.5242  -30.7150   12.3605 H         1 UNK         0.1020 
    135 H135      -48.1287  -31.4186   10.6379 H         1 UNK         0.0694 
    136 H136      -49.0975  -30.5021   11.7698 H         1 UNK         0.0694 
    137 H137      -45.7626  -27.1774   12.2447 H         1 UNK         0.2989 
    138 H138      -45.6565  -24.4502   14.4388 H         1 UNK         0.1055 
    139 H139      -43.2026  -25.6798   13.0662 H         1 UNK         0.0806 
    140 H140      -43.3171  -25.2830   14.7750 H         1 UNK         0.0806 
    141 H141      -43.3748  -24.0005   13.5795 H         1 UNK         0.0806 
    142 H142      -44.9825  -24.4763   11.7293 H         1 UNK         0.3061 
    143 H143      -47.8663  -23.2895   10.6885 H         1 UNK         0.0734 
    144 H144      -46.2722  -23.4147    8.7930 H         1 UNK         0.0832 
    145 H145      -45.4263  -23.0328   10.2751 H         1 UNK         0.0832 
    146 H146      -45.3454  -24.6665    9.6063 H         1 UNK         0.0832 
    147 H147      -47.5194  -25.7244    9.1242 H         1 UNK         0.3156 
    148 H148      -49.3959  -27.3498    9.0801 H         1 UNK         0.0589 
    149 H149      -52.0208  -25.7613    9.0204 H         1 UNK         0.0808 
    150 H150      -51.8144  -27.4087    8.4311 H         1 UNK         0.0808 
    151 H151      -51.6189  -27.0613   10.1337 H         1 UNK         0.0808 
    152 H152      -50.5548  -25.6572    7.0292 H         1 UNK         0.3098 
    153 H153      -49.0111  -24.5570    5.3586 H         1 UNK         0.0720 
    154 H154      -46.9085  -26.6455    4.5766 H         1 UNK         0.0791 
    155 H155      -47.3692  -25.2330    3.6253 H         1 UNK         0.0791 
    156 H156      -46.5740  -25.0269    5.1762 H         1 UNK         0.0791 
    157 H157      -49.2432  -27.0664    3.9236 H         1 UNK         0.3028 
@<TRIPOS>BOND
     1    1    2 1    
     2    1   82 1    
     3    1   83 1    
     4    1   84 1    
     5    2    3 2    
     6    2    4 am   BACKBONE|DICT|INTERRES
     7    4    5 1    
     8    4   85 1    
     9    5    6 1    
    10    5   80 1    
    11    5   86 1    
    12    6    7 1    
    13    6   87 1    
    14    6   88 1    
    15    7    8 1    
    16    8    9 1    
    17    8   89 1    
    18    8   90 1    
    19    9   10 ar   
    20    9   14 ar   
    21   10   11 ar   
    22   10   91 1    
    23   11   12 ar   
    24   11   58 1    
    25   12   13 ar   
    26   12   92 1    
    27   13   14 ar   
    28   13   15 1    
    29   14   93 1    
    30   15   16 1    
    31   15   94 1    
    32   15   95 1    
    33   16   17 1    
    34   17   18 1    
    35   17   96 1    
    36   17   97 1    
    37   18   19 1    
    38   18   22 1    
    39   18   98 1    
    40   19   20 am   BACKBONE|DICT|INTERRES
    41   19   21 2    
    42   20   99 1    
    43   20  100 1    
    44   22   23 am   BACKBONE|DICT|INTERRES
    45   22  101 1    
    46   23   24 2    
    47   23   25 1    
    48   25   26 1    
    49   25   27 1    
    50   25  102 1    
    51   26  103 1    
    52   26  104 1    
    53   26  105 1    
    54   27   28 am   BACKBONE|DICT|INTERRES
    55   27  106 1    
    56   28   29 2    
    57   28   30 1    
    58   30   31 1    
    59   30   32 1    
    60   30  107 1    
    61   31  108 1    
    62   31  109 1    
    63   31  110 1    
    64   32   33 am   BACKBONE|DICT|INTERRES
    65   32  111 1    
    66   33   34 2    
    67   33   35 1    
    68   35   36 1    
    69   35   37 1    
    70   35  112 1    
    71   36  113 1    
    72   36  114 1    
    73   36  115 1    
    74   37   38 am   BACKBONE|DICT|INTERRES
    75   37  116 1    
    76   38   39 2    
    77   38   40 1    
    78   40   41 1    
    79   40   42 1    
    80   40  117 1    
    81   41  118 1    
    82   41  119 1    
    83   41  120 1    
    84   42   43 am   BACKBONE|DICT|INTERRES
    85   42  121 1    
    86   43   44 2    
    87   43   45 1    
    88   45   46 1    
    89   45   47 1    
    90   45  122 1    
    91   46  123 1    
    92   46  124 1    
    93   46  125 1    
    94   47   48 am   BACKBONE|DICT|INTERRES
    95   47  126 1    
    96   48   49 2    
    97   48   50 1    
    98   50   51 1    
    99   50   52 1    
   100   50  127 1    
   101   51  128 1    
   102   51  129 1    
   103   51  130 1    
   104   52   53 am   BACKBONE|DICT|INTERRES
   105   52  131 1    
   106   53   54 2    
   107   53   55 1    
   108   55   56 1    
   109   55   59 1    
   110   55  132 1    
   111   56   57 1    
   112   56  133 1    
   113   56  134 1    
   114   57   58 1    
   115   58  135 1    
   116   58  136 1    
   117   59   60 am   BACKBONE|DICT|INTERRES
   118   59  137 1    
   119   60   61 2    
   120   60   62 1    
   121   62   63 1    
   122   62   64 1    
   123   62  138 1    
   124   63  139 1    
   125   63  140 1    
   126   63  141 1    
   127   64   65 am   BACKBONE|DICT|INTERRES
   128   64  142 1    
   129   65   66 2    
   130   65   67 1    
   131   67   68 1    
   132   67   69 1    
   133   67  143 1    
   134   68  144 1    
   135   68  145 1    
   136   68  146 1    
   137   69   70 am   BACKBONE|DICT|INTERRES
   138   69  147 1    
   139   70   71 2    
   140   70   72 1    
   141   72   73 1    
   142   72   74 1    
   143   72  148 1    
   144   73  149 1    
   145   73  150 1    
   146   73  151 1    
   147   74   75 am   BACKBONE|DICT|INTERRES
   148   74  152 1    
   149   75   76 2    
   150   75   77 1    
   151   77   78 1    
   152   77   79 1    
   153   77  153 1    
   154   78  154 1    
   155   78  155 1    
   156   78  156 1    
   157   79   80 am   BACKBONE|DICT|INTERRES
   158   79  157 1    
   159   80   81 2    
@<TRIPOS>SUBSTRUCTURE
     1 UNK         1 GROUP             0       ****    0 ROOT    
