@<TRIPOS>MOLECULE
3R207
157   159    1
SMALL
USER_CHARGES


@<TRIPOS>ATOM
      1 CA        -45.0680  -29.5598    5.3109 C.3       0 UNK        -0.1975 
      2 C         -46.2145  -28.8195    5.9830 C.2       0 UNK         0.4852 
      3 O         -47.3150  -28.7688    5.4340 O.2       0 UNK        -0.5216 
      4 N         -45.9615  -28.2390    7.1594 N.am      1 UNK        -0.4461 
      5 CA        -46.9206  -27.4751    7.9545 C.3       1 UNK         0.0864 
      6 C6        -47.9843  -28.3534    8.6620 C.3       14 UNK        -0.0898 
      7 S7        -47.3194  -29.7121    9.6853 S.3       14 UNK        -0.2598 
      8 C8        -48.3442  -31.1150    9.1327 C.3       14 UNK         0.0286 
      9 C9        -49.8347  -30.8303    9.2769 C.ar      14 UNK        -0.0844 
     10 C10       -50.6261  -30.6359    8.1404 C.ar      14 UNK        -0.0881 
     11 C11       -51.9875  -30.3470    8.2631 C.ar      14 UNK        -0.0643 
     12 C12       -52.5625  -30.2731    9.5356 C.ar      14 UNK        -0.0930 
     13 C13       -51.7814  -30.4594   10.6800 C.ar      14 UNK        -0.0827 
     14 C14       -50.4193  -30.7446   10.5438 C.ar      14 UNK        -0.1249 
     15 C15       -52.4078  -30.3558   12.0620 C.3       14 UNK         0.0141 
     16 S16       -52.9275  -28.6506   12.4332 S.3       14 UNK        -0.2313 
     17 C17       -54.7420  -28.8389   12.4748 C.3       14 UNK        -0.0915 
     18 CA        -55.5036  -27.4873   12.5445 C.3       13 UNK         0.0968 
     19 C         -57.0454  -27.7129   12.5085 C.2       13 UNK         0.5732 
     20 N         -57.8160  -27.2973   13.5089 N.am      13 UNK        -0.7310 
     21 O         -57.5570  -28.2777   11.5448 O.2       13 UNK        -0.5035 
     22 N         -55.0359  -26.6579   13.6638 N.am      13 UNK        -0.4233 
     23 C         -55.2251  -25.3378   13.7809 C.2       13 UNK         0.4989 
     24 O         -55.7575  -24.6379   12.9184 O.2       13 UNK        -0.4996 
     25 CA        -54.7393  -24.7091   15.1005 C.3       12 UNK         0.0216 
     26 CB        -55.3311  -23.3069   15.3568 C.3       12 UNK        -0.1964 
     27 N         -54.9538  -25.5901   16.2577 N.am      12 UNK        -0.4276 
     28 C         -56.1246  -26.0756   16.7063 C.2       12 UNK         0.5020 
     29 O         -57.2066  -25.8288   16.1714 O.2       12 UNK        -0.5489 
     30 CA        -56.1030  -27.0416   17.9111 C.3       11 UNK         0.0294 
     31 CB        -56.7636  -28.3815   17.5395 C.3       11 UNK        -0.2019 
     32 N         -54.7601  -27.3158   18.4275 N.am      11 UNK        -0.4493 
     33 C         -54.0304  -26.4907   19.1908 C.2       11 UNK         0.4932 
     34 O         -54.4511  -25.4269   19.6444 O.2       11 UNK        -0.5029 
     35 CA        -52.5678  -26.9032   19.4565 C.3       10 UNK         0.0280 
     36 CB        -52.4360  -27.5397   20.8495 C.3       10 UNK        -0.1976 
     37 N         -52.0033  -27.8161   18.4504 N.am      10 UNK        -0.4242 
     38 C         -51.8749  -27.5441   17.1435 C.2       10 UNK         0.5072 
     39 O         -52.2395  -26.4860   16.6256 O.2       10 UNK        -0.5224 
     40 CA        -51.3443  -28.6832   16.2603 C.3       9 UNK         0.0343 
     41 CB        -52.4872  -29.6488   15.9031 C.3       9 UNK        -0.2003 
     42 N         -50.7471  -28.1646   15.0276 N.am      9 UNK        -0.4272 
     43 C         -49.5212  -27.6282   14.9570 C.2       9 UNK         0.4988 
     44 O         -48.7435  -27.5799   15.9115 O.2       9 UNK        -0.5108 
     45 CA        -49.0660  -27.0624   13.6011 C.3       8 UNK         0.0248 
     46 CB        -48.2512  -28.1048   12.8214 C.3       8 UNK        -0.2001 
     47 N         -50.1639  -26.5821   12.7574 N.am      8 UNK        -0.4140 
     48 C         -50.7641  -25.3927   12.9066 C.2       8 UNK         0.5028 
     49 O         -50.4620  -24.5865   13.7871 O.2       8 UNK        -0.5428 
     50 CA        -51.8611  -25.0326   11.8893 C.3       7 UNK         0.0264 
     51 CB        -52.0689  -23.5115   11.7417 C.3       7 UNK        -0.1988 
     52 N         -51.6012  -25.6335   10.5793 N.am      7 UNK        -0.4454 
     53 C         -52.5437  -25.9857    9.6967 C.2       7 UNK         0.5027 
     54 O         -53.7479  -25.7976    9.8726 O.2       7 UNK        -0.5083 
     55 CA        -52.0533  -26.6236    8.3797 C.3       6 UNK         0.0844 
     56 C56       -53.1936  -27.3761    7.6450 C.3       14 UNK        -0.0967 
     57 S57       -52.5563  -28.4489    6.3145 S.3       14 UNK        -0.2604 
     58 C58       -52.8308  -30.1087    7.0184 C.3       14 UNK         0.0134 
     59 N         -51.4459  -25.6019    7.5206 N.am      6 UNK        -0.4116 
     60 C         -50.2361  -25.0604    7.6981 C.2       5 UNK         0.5034 
     61 O         -49.4657  -25.3921    8.6035 O.2       5 UNK        -0.5045 
     62 CA        -49.8440  -23.9221    6.7470 C.3       5 UNK         0.0224 
     63 CB        -50.1354  -22.5642    7.4056 C.3       5 UNK        -0.1978 
     64 N         -48.4186  -24.0060    6.4166 N.am      5 UNK        -0.4737 
     65 C         -47.9410  -24.6076    5.3170 C.2       4 UNK         0.5027 
     66 O         -48.6719  -25.0897    4.4513 O.2       4 UNK        -0.5211 
     67 CA        -46.4120  -24.7442    5.1434 C.3       4 UNK         0.0297 
     68 CB        -45.9516  -24.3441    3.7255 C.3       4 UNK        -0.1993 
     69 N         -45.6008  -24.0865    6.1766 N.am      4 UNK        -0.4486 
     70 C         -45.4291  -22.7732    6.3939 C.2       3 UNK         0.4961 
     71 O         -45.9225  -21.8833    5.7003 O.2       3 UNK        -0.5105 
     72 CA        -44.5877  -22.4188    7.6404 C.3       3 UNK         0.0299 
     73 CB        -44.6516  -20.9210    8.0093 C.3       3 UNK        -0.1972 
     74 N         -44.9379  -23.2642    8.7935 N.am      3 UNK        -0.4305 
     75 C         -46.1551  -23.3763    9.3459 C.2       2 UNK         0.5006 
     76 O         -47.1282  -22.6999    9.0133 O.2       2 UNK        -0.5106 
     77 CA        -46.3510  -24.5253   10.3407 C.3       2 UNK         0.0296 
     78 CB        -47.3389  -24.1523   11.4591 C.3       2 UNK        -0.2002 
     79 N         -46.8867  -25.6561    9.5882 N.am      2 UNK        -0.4032 
     80 C         -46.1520  -26.5369    8.9008 C.2       1 UNK         0.5000 
     81 O         -44.9182  -26.5803    8.9449 O.2       1 UNK        -0.5238 
     82 H82       -44.8558  -29.1185    4.3374 H         1 UNK         0.0889 
     83 H83       -45.3346  -30.6057    5.1610 H         1 UNK         0.0889 
     84 H84       -44.1556  -29.5246    5.9061 H         1 UNK         0.0889 
     85 H85       -45.0333  -28.2629    7.5650 H         1 UNK         0.3028 
     86 H86       -47.4542  -26.8167    7.2672 H         1 UNK         0.0864 
     87 H87       -48.6322  -28.7688    7.8912 H         1 UNK         0.0720 
     88 H88       -48.6447  -27.7569    9.2916 H         1 UNK         0.0720 
     89 H89       -48.0858  -31.9972    9.7199 H         1 UNK         0.0814 
     90 H90       -48.0919  -31.3507    8.0976 H         1 UNK         0.0814 
     91 H91       -50.1806  -30.6882    7.1561 H         1 UNK         0.1469 
     92 H92       -53.6160  -30.0541    9.6397 H         1 UNK         0.1381 
     93 H93       -49.8062  -30.8922   11.4221 H         1 UNK         0.1206 
     94 H94       -51.6982  -30.6747   12.8266 H         1 UNK         0.0813 
     95 H95       -53.2536  -31.0412   12.1313 H         1 UNK         0.0813 
     96 H96       -55.0005  -29.4660   13.3301 H         1 UNK         0.0638 
     97 H97       -55.0430  -29.3925   11.5837 H         1 UNK         0.0638 
     98 H98       -55.2743  -26.9419   11.6290 H         1 UNK         0.0568 
     99 H99       -58.8092  -27.4555   13.4549 H         1 UNK         0.3450 
    100 H100      -57.4321  -26.8011   14.3038 H         1 UNK         0.3450 
    101 H101      -54.5930  -27.1502   14.4233 H         1 UNK         0.2987 
    102 H102      -53.6583  -24.5964   15.0000 H         1 UNK         0.0766 
    103 H103      -56.4200  -23.3304   15.4112 H         1 UNK         0.0798 
    104 H104      -55.0603  -22.6163   14.5572 H         1 UNK         0.0798 
    105 H105      -54.9575  -22.8839   16.2893 H         1 UNK         0.0798 
    106 H106      -54.0978  -25.8926   16.7160 H         1 UNK         0.3198 
    107 H107      -56.6922  -26.5766   18.7046 H         1 UNK         0.0843 
    108 H108      -56.2329  -28.8844   16.7299 H         1 UNK         0.0831 
    109 H109      -57.7931  -28.2342   17.2096 H         1 UNK         0.0831 
    110 H110      -56.7968  -29.0590   18.3929 H         1 UNK         0.0831 
    111 H111      -54.3290  -28.1761   18.1235 H         1 UNK         0.3133 
    112 H112      -51.9685  -25.9905   19.4404 H         1 UNK         0.0566 
    113 H113      -52.9929  -28.4749   20.9216 H         1 UNK         0.0814 
    114 H114      -52.8206  -26.8720   21.6220 H         1 UNK         0.0814 
    115 H115      -51.3945  -27.7476   21.0956 H         1 UNK         0.0814 
    116 H116      -51.6937  -28.7172   18.7872 H         1 UNK         0.3091 
    117 H117      -50.5828  -29.2350   16.8160 H         1 UNK         0.0702 
    118 H118      -52.1377  -30.4559   15.2596 H         1 UNK         0.0785 
    119 H119      -53.3048  -29.1405   15.3916 H         1 UNK         0.0785 
    120 H120      -52.9039  -30.1138   16.7974 H         1 UNK         0.0785 
    121 H121      -51.3406  -28.1335   14.2110 H         1 UNK         0.2998 
    122 H122      -48.4055  -26.2225   13.8231 H         1 UNK         0.0697 
    123 H123      -47.8246  -27.6734   11.9158 H         1 UNK         0.0825 
    124 H124      -48.8599  -28.9617   12.5326 H         1 UNK         0.0825 
    125 H125      -47.4203  -28.4816   13.4193 H         1 UNK         0.0825 
    126 H126      -50.4972  -27.2075   12.0374 H         1 UNK         0.3029 
    127 H127      -52.7800  -25.4645   12.2863 H         1 UNK         0.0897 
    128 H128      -51.1737  -23.0221   11.3563 H         1 UNK         0.0792 
    129 H129      -52.3110  -23.0511   12.7004 H         1 UNK         0.0792 
    130 H130      -52.8932  -23.2867   11.0647 H         1 UNK         0.0792 
    131 H131      -50.6300  -25.7254   10.3000 H         1 UNK         0.3086 
    132 H132      -51.2884  -27.3567    8.6482 H         1 UNK         0.0583 
    133 H133      -53.7729  -27.9836    8.3421 H         1 UNK         0.1020 
    134 H134      -53.9073  -26.6710    7.2148 H         1 UNK         0.1020 
    135 H135      -53.8917  -30.2397    7.2375 H         1 UNK         0.0694 
    136 H136      -52.5821  -30.8565    6.2639 H         1 UNK         0.0694 
    137 H137      -52.0271  -25.2617    6.7690 H         1 UNK         0.2989 
    138 H138      -50.4433  -23.9922    5.8363 H         1 UNK         0.1055 
    139 H139      -49.6403  -22.4652    8.3721 H         1 UNK         0.0806 
    140 H140      -51.2047  -22.4360    7.5780 H         1 UNK         0.0806 
    141 H141      -49.8068  -21.7376    6.7752 H         1 UNK         0.0806 
    142 H142      -47.7789  -23.6319    7.1076 H         1 UNK         0.3061 
    143 H143      -46.2053  -25.8095    5.2514 H         1 UNK         0.0734 
    144 H144      -46.1987  -23.3078    3.4942 H         1 UNK         0.0832 
    145 H145      -44.8755  -24.4690    3.6056 H         1 UNK         0.0832 
    146 H146      -46.4332  -24.9648    2.9689 H         1 UNK         0.0832 
    147 H147      -45.1334  -24.7138    6.8167 H         1 UNK         0.3156 
    148 H148      -43.5522  -22.6517    7.3876 H         1 UNK         0.0589 
    149 H149      -44.0418  -20.7018    8.8856 H         1 UNK         0.0808 
    150 H150      -44.2783  -20.3025    7.1923 H         1 UNK         0.0808 
    151 H151      -45.6711  -20.5964    8.2204 H         1 UNK         0.0808 
    152 H152      -44.2142  -23.8960    9.1116 H         1 UNK         0.3098 
    153 H153      -45.3930  -24.7867   10.7955 H         1 UNK         0.0720 
    154 H154      -48.3362  -23.9377   11.0717 H         1 UNK         0.0791 
    155 H155      -47.0008  -23.2684   12.0011 H         1 UNK         0.0791 
    156 H156      -47.4288  -24.9604   12.1820 H         1 UNK         0.0791 
    157 H157      -47.8865  -25.6168    9.3910 H         1 UNK         0.3028 
@<TRIPOS>BOND
     1    1    2 1    
     2    1   82 1    
     3    1   83 1    
     4    1   84 1    
     5    2    3 2    
     6    2    4 am   BACKBONE|DICT|INTERRES
     7    4    5 1    
     8    4   85 1    
     9    5    6 1    
    10    5   80 1    
    11    5   86 1    
    12    6    7 1    
    13    6   87 1    
    14    6   88 1    
    15    7    8 1    
    16    8    9 1    
    17    8   89 1    
    18    8   90 1    
    19    9   10 ar   
    20    9   14 ar   
    21   10   11 ar   
    22   10   91 1    
    23   11   12 ar   
    24   11   58 1    
    25   12   13 ar   
    26   12   92 1    
    27   13   14 ar   
    28   13   15 1    
    29   14   93 1    
    30   15   16 1    
    31   15   94 1    
    32   15   95 1    
    33   16   17 1    
    34   17   18 1    
    35   17   96 1    
    36   17   97 1    
    37   18   19 1    
    38   18   22 1    
    39   18   98 1    
    40   19   20 am   BACKBONE|DICT|INTERRES
    41   19   21 2    
    42   20   99 1    
    43   20  100 1    
    44   22   23 am   BACKBONE|DICT|INTERRES
    45   22  101 1    
    46   23   24 2    
    47   23   25 1    
    48   25   26 1    
    49   25   27 1    
    50   25  102 1    
    51   26  103 1    
    52   26  104 1    
    53   26  105 1    
    54   27   28 am   BACKBONE|DICT|INTERRES
    55   27  106 1    
    56   28   29 2    
    57   28   30 1    
    58   30   31 1    
    59   30   32 1    
    60   30  107 1    
    61   31  108 1    
    62   31  109 1    
    63   31  110 1    
    64   32   33 am   BACKBONE|DICT|INTERRES
    65   32  111 1    
    66   33   34 2    
    67   33   35 1    
    68   35   36 1    
    69   35   37 1    
    70   35  112 1    
    71   36  113 1    
    72   36  114 1    
    73   36  115 1    
    74   37   38 am   BACKBONE|DICT|INTERRES
    75   37  116 1    
    76   38   39 2    
    77   38   40 1    
    78   40   41 1    
    79   40   42 1    
    80   40  117 1    
    81   41  118 1    
    82   41  119 1    
    83   41  120 1    
    84   42   43 am   BACKBONE|DICT|INTERRES
    85   42  121 1    
    86   43   44 2    
    87   43   45 1    
    88   45   46 1    
    89   45   47 1    
    90   45  122 1    
    91   46  123 1    
    92   46  124 1    
    93   46  125 1    
    94   47   48 am   BACKBONE|DICT|INTERRES
    95   47  126 1    
    96   48   49 2    
    97   48   50 1    
    98   50   51 1    
    99   50   52 1    
   100   50  127 1    
   101   51  128 1    
   102   51  129 1    
   103   51  130 1    
   104   52   53 am   BACKBONE|DICT|INTERRES
   105   52  131 1    
   106   53   54 2    
   107   53   55 1    
   108   55   56 1    
   109   55   59 1    
   110   55  132 1    
   111   56   57 1    
   112   56  133 1    
   113   56  134 1    
   114   57   58 1    
   115   58  135 1    
   116   58  136 1    
   117   59   60 am   BACKBONE|DICT|INTERRES
   118   59  137 1    
   119   60   61 2    
   120   60   62 1    
   121   62   63 1    
   122   62   64 1    
   123   62  138 1    
   124   63  139 1    
   125   63  140 1    
   126   63  141 1    
   127   64   65 am   BACKBONE|DICT|INTERRES
   128   64  142 1    
   129   65   66 2    
   130   65   67 1    
   131   67   68 1    
   132   67   69 1    
   133   67  143 1    
   134   68  144 1    
   135   68  145 1    
   136   68  146 1    
   137   69   70 am   BACKBONE|DICT|INTERRES
   138   69  147 1    
   139   70   71 2    
   140   70   72 1    
   141   72   73 1    
   142   72   74 1    
   143   72  148 1    
   144   73  149 1    
   145   73  150 1    
   146   73  151 1    
   147   74   75 am   BACKBONE|DICT|INTERRES
   148   74  152 1    
   149   75   76 2    
   150   75   77 1    
   151   77   78 1    
   152   77   79 1    
   153   77  153 1    
   154   78  154 1    
   155   78  155 1    
   156   78  156 1    
   157   79   80 am   BACKBONE|DICT|INTERRES
   158   79  157 1    
   159   80   81 2    
@<TRIPOS>SUBSTRUCTURE
     1 UNK         1 GROUP             0       ****    0 ROOT    
