@<TRIPOS>MOLECULE
3R207
157   159    1
SMALL
USER_CHARGES


@<TRIPOS>ATOM
      1 CA        -50.1724  -30.6763    2.6834 C.3       0 UNK        -0.1975 
      2 C         -50.2174  -29.1577    2.6020 C.2       0 UNK         0.4852 
      3 O         -49.8096  -28.5862    1.5904 O.2       0 UNK        -0.5216 
      4 N         -50.7062  -28.4997    3.6624 N.am      1 UNK        -0.4461 
      5 CA        -50.8220  -27.0384    3.7649 C.3       1 UNK         0.0864 
      6 C6        -51.8669  -26.6267    4.8396 C.3       14 UNK        -0.0898 
      7 S7        -51.3267  -26.8375    6.5747 S.3       14 UNK        -0.2598 
      8 C8        -52.0427  -28.4484    7.0145 C.3       14 UNK         0.0286 
      9 C9        -51.5562  -28.9034    8.3821 C.ar      14 UNK        -0.0844 
     10 C10       -50.2167  -29.2620    8.5665 C.ar      14 UNK        -0.0881 
     11 C11       -49.7597  -29.6918    9.8158 C.ar      14 UNK        -0.0643 
     12 C12       -50.6580  -29.7780   10.8829 C.ar      14 UNK        -0.0930 
     13 C13       -51.9957  -29.4096   10.7141 C.ar      14 UNK        -0.0827 
     14 C14       -52.4394  -28.9698    9.4633 C.ar      14 UNK        -0.1249 
     15 C15       -52.9516  -29.4420   11.8941 C.3       14 UNK         0.0141 
     16 S16       -54.1595  -30.7927   11.7515 S.3       14 UNK        -0.2313 
     17 C17       -55.0379  -30.6404   13.3430 C.3       14 UNK        -0.0915 
     18 CA        -56.3128  -29.7594   13.2526 C.3       13 UNK         0.0968 
     19 C         -57.2024  -29.9136   14.5217 C.2       13 UNK         0.5732 
     20 N         -57.5370  -28.8561   15.2528 N.am      13 UNK        -0.7310 
     21 O         -57.6160  -31.0247   14.8451 O.2       13 UNK        -0.5035 
     22 N         -55.9801  -28.3635   12.9341 N.am      13 UNK        -0.4233 
     23 C         -56.7656  -27.5277   12.2445 C.2       13 UNK         0.4989 
     24 O         -57.8256  -27.8714   11.7174 O.2       13 UNK        -0.4996 
     25 CA        -56.2915  -26.0621   12.1206 C.3       12 UNK         0.0216 
     26 CB        -57.4563  -25.0851   11.8541 C.3       12 UNK        -0.1964 
     27 N         -55.4859  -25.5900   13.2548 N.am      12 UNK        -0.4276 
     28 C         -55.8254  -25.5906   14.5518 C.2       12 UNK         0.5020 
     29 O         -56.8940  -26.0196   14.9929 O.2       12 UNK        -0.5489 
     30 CA        -54.7591  -25.0590   15.5245 C.3       11 UNK         0.0294 
     31 CB        -55.3935  -24.1721   16.6101 C.3       11 UNK        -0.2019 
     32 N         -53.9505  -26.0966   16.1770 N.am      11 UNK        -0.4493 
     33 C         -53.4450  -27.2235   15.6520 C.2       11 UNK         0.4932 
     34 O         -53.6762  -27.6449   14.5187 O.2       11 UNK        -0.5029 
     35 CA        -52.4309  -27.9510   16.5432 C.3       10 UNK         0.0280 
     36 CB        -52.1112  -29.3775   16.0617 C.3       10 UNK        -0.1976 
     37 N         -51.2116  -27.1507   16.5145 N.am      10 UNK        -0.4242 
     38 C         -50.7876  -26.3592   17.5069 C.2       10 UNK         0.5072 
     39 O         -51.2844  -26.3394   18.6339 O.2       10 UNK        -0.5224 
     40 CA        -49.6536  -25.3796   17.1633 C.3       9 UNK         0.0343 
     41 CB        -48.3015  -26.1064   17.0850 C.3       9 UNK        -0.2003 
     42 N         -49.8981  -24.6554   15.9127 N.am      9 UNK        -0.4272 
     43 C         -50.9138  -23.8036   15.6982 C.2       9 UNK         0.4988 
     44 O         -51.7476  -23.4996   16.5510 O.2       9 UNK        -0.5108 
     45 CA        -51.0250  -23.1872   14.2962 C.3       8 UNK         0.0248 
     46 CB        -50.0902  -21.9738   14.1618 C.3       8 UNK        -0.2001 
     47 N         -50.7036  -24.1705   13.2623 N.am      8 UNK        -0.4140 
     48 C         -51.6071  -24.9141   12.6089 C.2       8 UNK         0.5028 
     49 O         -52.8259  -24.7864   12.7358 O.2       8 UNK        -0.5428 
     50 CA        -51.0748  -25.9777   11.6331 C.3       7 UNK         0.0264 
     51 CB        -51.1637  -25.4697   10.1877 C.3       7 UNK        -0.1988 
     52 N         -49.7028  -26.4171   11.9002 N.am      7 UNK        -0.4454 
     53 C         -49.3204  -27.1175   12.9762 C.2       7 UNK         0.5027 
     54 O         -50.0812  -27.4492   13.8856 O.2       7 UNK        -0.5083 
     55 CA        -47.8177  -27.4466   13.0963 C.3       6 UNK         0.0844 
     56 C56       -47.4486  -28.7761   12.3908 C.3       14 UNK        -0.0967 
     57 S57       -47.3009  -28.6519   10.5703 S.3       14 UNK        -0.2604 
     58 C58       -48.2975  -30.0673   10.0022 C.3       14 UNK         0.0134 
     59 N         -46.9172  -26.3473   12.7201 N.am      6 UNK        -0.4116 
     60 C         -46.9587  -25.0928   13.1938 C.2       5 UNK         0.5034 
     61 O         -47.8429  -24.6652   13.9353 O.2       5 UNK        -0.5045 
     62 CA        -45.8292  -24.1556   12.7587 C.3       5 UNK         0.0224 
     63 CB        -44.5573  -24.4413   13.5836 C.3       5 UNK        -0.1978 
     64 N         -45.5769  -24.2714   11.3199 N.am      5 UNK        -0.4737 
     65 C         -44.8226  -23.4342   10.5961 C.2       4 UNK         0.5027 
     66 O         -44.2169  -22.4702   11.0647 O.2       4 UNK        -0.5211 
     67 CA        -44.7353  -23.7155    9.0870 C.3       4 UNK         0.0297 
     68 CB        -43.5900  -24.6957    8.7865 C.3       4 UNK        -0.1993 
     69 N         -45.9826  -24.2452    8.5315 N.am      4 UNK        -0.4486 
     70 C         -47.1055  -23.5410    8.3469 C.2       3 UNK         0.4961 
     71 O         -47.2085  -22.3449    8.6238 O.2       3 UNK        -0.5105 
     72 CA        -48.3034  -24.3023    7.7398 C.3       3 UNK         0.0299 
     73 CB        -49.5337  -23.3974    7.5356 C.3       3 UNK        -0.1972 
     74 N         -47.9893  -24.9525    6.4639 N.am      3 UNK        -0.4305 
     75 C         -47.2363  -26.0457    6.2874 C.2       2 UNK         0.5006 
     76 O         -46.6625  -26.6333    7.2068 O.2       2 UNK        -0.5106 
     77 CA        -47.1386  -26.5771    4.8455 C.3       2 UNK         0.0296 
     78 CB        -46.0931  -27.6985    4.6970 C.3       2 UNK        -0.2002 
     79 N         -48.4397  -27.0815    4.4092 N.am      2 UNK        -0.4032 
     80 C         -49.4621  -26.3299    3.9742 C.2       1 UNK         0.5000 
     81 O         -49.3740  -25.1144    3.7842 O.2       1 UNK        -0.5238 
     82 H82       -50.5652  -31.0474    3.6300 H         1 UNK         0.0889 
     83 H83       -49.1458  -31.0273    2.5812 H         1 UNK         0.0889 
     84 H84       -50.7630  -31.1121    1.8779 H         1 UNK         0.0889 
     85 H85       -51.0344  -29.0221    4.4608 H         1 UNK         0.3028 
     86 H86       -51.1992  -26.6807    2.8041 H         1 UNK         0.0864 
     87 H87       -52.1176  -25.5723    4.7102 H         1 UNK         0.0720 
     88 H88       -52.8036  -27.1640    4.6823 H         1 UNK         0.0720 
     89 H89       -51.7655  -29.1968    6.2725 H         1 UNK         0.0814 
     90 H90       -53.1312  -28.3752    6.9925 H         1 UNK         0.0814 
     91 H91       -49.5260  -29.1944    7.7370 H         1 UNK         0.1469 
     92 H92       -50.3129  -30.1126   11.8508 H         1 UNK         0.1381 
     93 H93       -53.4739  -28.6817    9.3356 H         1 UNK         0.1206 
     94 H94       -52.4001  -29.5426   12.8291 H         1 UNK         0.0813 
     95 H95       -53.4753  -28.4883   11.9474 H         1 UNK         0.0813 
     96 H96       -54.3582  -30.2600   14.1055 H         1 UNK         0.0638 
     97 H97       -55.2951  -31.6554   13.6512 H         1 UNK         0.0638 
     98 H98       -56.9161  -30.1584   12.4352 H         1 UNK         0.0568 
     99 H99       -58.1203  -28.9904   16.0626 H         1 UNK         0.3450 
    100 H100      -57.2323  -27.9181   15.0077 H         1 UNK         0.3450 
    101 H101      -55.1461  -27.9981   13.3882 H         1 UNK         0.2987 
    102 H102      -55.6308  -26.0354   11.2529 H         1 UNK         0.0766 
    103 H103      -57.0977  -24.0619   11.7417 H         1 UNK         0.0798 
    104 H104      -58.1852  -25.0980   12.6652 H         1 UNK         0.0798 
    105 H105      -57.9852  -25.3427   10.9357 H         1 UNK         0.0798 
    106 H106      -54.5386  -25.2823   13.0228 H         1 UNK         0.3198 
    107 H107      -54.0699  -24.4288   14.9618 H         1 UNK         0.0843 
    108 H108      -56.0337  -24.7489   17.2790 H         1 UNK         0.0831 
    109 H109      -56.0090  -23.3894   16.1645 H         1 UNK         0.0831 
    110 H110      -54.6323  -23.6779   17.2143 H         1 UNK         0.0831 
    111 H111      -53.6478  -25.8668   17.1131 H         1 UNK         0.3133 
    112 H112      -52.8430  -28.0171   17.5523 H         1 UNK         0.0566 
    113 H113      -51.6892  -29.3829   15.0568 H         1 UNK         0.0814 
    114 H114      -51.3940  -29.8631   16.7232 H         1 UNK         0.0814 
    115 H115      -53.0097  -29.9945   16.0494 H         1 UNK         0.0814 
    116 H116      -50.7565  -27.0927   15.6048 H         1 UNK         0.3091 
    117 H117      -49.5962  -24.6406   17.9652 H         1 UNK         0.0702 
    118 H118      -47.4876  -25.4105   16.8803 H         1 UNK         0.0785 
    119 H119      -48.2964  -26.8664   16.3040 H         1 UNK         0.0785 
    120 H120      -48.0732  -26.6060   18.0274 H         1 UNK         0.0785 
    121 H121      -49.2155  -24.7893   15.1714 H         1 UNK         0.2998 
    122 H122      -52.0505  -22.8349   14.1655 H         1 UNK         0.0697 
    123 H123      -49.0428  -22.2470   14.2947 H         1 UNK         0.0825 
    124 H124      -50.3264  -21.2167   14.9108 H         1 UNK         0.0825 
    125 H125      -50.1915  -21.5037   13.1836 H         1 UNK         0.0825 
    126 H126      -49.7202  -24.3677   13.1210 H         1 UNK         0.3029 
    127 H127      -51.7252  -26.8462   11.7329 H         1 UNK         0.0897 
    128 H128      -52.1931  -25.2264    9.9210 H         1 UNK         0.0792 
    129 H129      -50.8181  -26.2243    9.4815 H         1 UNK         0.0792 
    130 H130      -50.5662  -24.5702   10.0433 H         1 UNK         0.0792 
    131 H131      -49.0105  -26.2148   11.1946 H         1 UNK         0.3086 
    132 H132      -47.6411  -27.6075   14.1611 H         1 UNK         0.0583 
    133 H133      -46.4843  -29.1217   12.7668 H         1 UNK         0.1020 
    134 H134      -48.1530  -29.5627   12.6659 H         1 UNK         0.1020 
    135 H135      -47.8859  -30.4179    9.0545 H         1 UNK         0.0694 
    136 H136      -48.2004  -30.9035   10.6962 H         1 UNK         0.0694 
    137 H137      -46.1409  -26.6144   12.1331 H         1 UNK         0.2989 
    138 H138      -46.1582  -23.1347   12.9660 H         1 UNK         0.1055 
    139 H139      -44.7738  -24.4286   14.6530 H         1 UNK         0.0806 
    140 H140      -43.7865  -23.6910   13.4091 H         1 UNK         0.0806 
    141 H141      -44.1312  -25.4170   13.3477 H         1 UNK         0.0806 
    142 H142      -46.0778  -24.9955   10.8253 H         1 UNK         0.3061 
    143 H143      -44.5149  -22.7702    8.5861 H         1 UNK         0.0734 
    144 H144      -43.4651  -24.8428    7.7135 H         1 UNK         0.0832 
    145 H145      -42.6423  -24.3183    9.1734 H         1 UNK         0.0832 
    146 H146      -43.7622  -25.6723    9.2410 H         1 UNK         0.0832 
    147 H147      -45.9919  -25.2180    8.2302 H         1 UNK         0.3156 
    148 H148      -48.5791  -25.0806    8.4542 H         1 UNK         0.0589 
    149 H149      -49.3427  -22.6198    6.7951 H         1 UNK         0.0808 
    150 H150      -50.3983  -23.9719    7.2027 H         1 UNK         0.0808 
    151 H151      -49.8178  -22.8988    8.4631 H         1 UNK         0.0808 
    152 H152      -48.4347  -24.5638    5.6402 H         1 UNK         0.3098 
    153 H153      -46.8361  -25.7480    4.2021 H         1 UNK         0.0720 
    154 H154      -45.1049  -27.3525    5.0033 H         1 UNK         0.0791 
    155 H155      -46.0128  -28.0303    3.6616 H         1 UNK         0.0791 
    156 H156      -46.3387  -28.5671    5.3095 H         1 UNK         0.0791 
    157 H157      -48.6164  -28.0623    4.5665 H         1 UNK         0.3028 
@<TRIPOS>BOND
     1    1    2 1    
     2    1   82 1    
     3    1   83 1    
     4    1   84 1    
     5    2    3 2    
     6    2    4 am   BACKBONE|DICT|INTERRES
     7    4    5 1    
     8    4   85 1    
     9    5    6 1    
    10    5   80 1    
    11    5   86 1    
    12    6    7 1    
    13    6   87 1    
    14    6   88 1    
    15    7    8 1    
    16    8    9 1    
    17    8   89 1    
    18    8   90 1    
    19    9   10 ar   
    20    9   14 ar   
    21   10   11 ar   
    22   10   91 1    
    23   11   12 ar   
    24   11   58 1    
    25   12   13 ar   
    26   12   92 1    
    27   13   14 ar   
    28   13   15 1    
    29   14   93 1    
    30   15   16 1    
    31   15   94 1    
    32   15   95 1    
    33   16   17 1    
    34   17   18 1    
    35   17   96 1    
    36   17   97 1    
    37   18   19 1    
    38   18   22 1    
    39   18   98 1    
    40   19   20 am   BACKBONE|DICT|INTERRES
    41   19   21 2    
    42   20   99 1    
    43   20  100 1    
    44   22   23 am   BACKBONE|DICT|INTERRES
    45   22  101 1    
    46   23   24 2    
    47   23   25 1    
    48   25   26 1    
    49   25   27 1    
    50   25  102 1    
    51   26  103 1    
    52   26  104 1    
    53   26  105 1    
    54   27   28 am   BACKBONE|DICT|INTERRES
    55   27  106 1    
    56   28   29 2    
    57   28   30 1    
    58   30   31 1    
    59   30   32 1    
    60   30  107 1    
    61   31  108 1    
    62   31  109 1    
    63   31  110 1    
    64   32   33 am   BACKBONE|DICT|INTERRES
    65   32  111 1    
    66   33   34 2    
    67   33   35 1    
    68   35   36 1    
    69   35   37 1    
    70   35  112 1    
    71   36  113 1    
    72   36  114 1    
    73   36  115 1    
    74   37   38 am   BACKBONE|DICT|INTERRES
    75   37  116 1    
    76   38   39 2    
    77   38   40 1    
    78   40   41 1    
    79   40   42 1    
    80   40  117 1    
    81   41  118 1    
    82   41  119 1    
    83   41  120 1    
    84   42   43 am   BACKBONE|DICT|INTERRES
    85   42  121 1    
    86   43   44 2    
    87   43   45 1    
    88   45   46 1    
    89   45   47 1    
    90   45  122 1    
    91   46  123 1    
    92   46  124 1    
    93   46  125 1    
    94   47   48 am   BACKBONE|DICT|INTERRES
    95   47  126 1    
    96   48   49 2    
    97   48   50 1    
    98   50   51 1    
    99   50   52 1    
   100   50  127 1    
   101   51  128 1    
   102   51  129 1    
   103   51  130 1    
   104   52   53 am   BACKBONE|DICT|INTERRES
   105   52  131 1    
   106   53   54 2    
   107   53   55 1    
   108   55   56 1    
   109   55   59 1    
   110   55  132 1    
   111   56   57 1    
   112   56  133 1    
   113   56  134 1    
   114   57   58 1    
   115   58  135 1    
   116   58  136 1    
   117   59   60 am   BACKBONE|DICT|INTERRES
   118   59  137 1    
   119   60   61 2    
   120   60   62 1    
   121   62   63 1    
   122   62   64 1    
   123   62  138 1    
   124   63  139 1    
   125   63  140 1    
   126   63  141 1    
   127   64   65 am   BACKBONE|DICT|INTERRES
   128   64  142 1    
   129   65   66 2    
   130   65   67 1    
   131   67   68 1    
   132   67   69 1    
   133   67  143 1    
   134   68  144 1    
   135   68  145 1    
   136   68  146 1    
   137   69   70 am   BACKBONE|DICT|INTERRES
   138   69  147 1    
   139   70   71 2    
   140   70   72 1    
   141   72   73 1    
   142   72   74 1    
   143   72  148 1    
   144   73  149 1    
   145   73  150 1    
   146   73  151 1    
   147   74   75 am   BACKBONE|DICT|INTERRES
   148   74  152 1    
   149   75   76 2    
   150   75   77 1    
   151   77   78 1    
   152   77   79 1    
   153   77  153 1    
   154   78  154 1    
   155   78  155 1    
   156   78  156 1    
   157   79   80 am   BACKBONE|DICT|INTERRES
   158   79  157 1    
   159   80   81 2    
@<TRIPOS>SUBSTRUCTURE
     1 UNK         1 GROUP             0       ****    0 ROOT    
