@<TRIPOS>MOLECULE
3R207
157   159    1
SMALL
USER_CHARGES


@<TRIPOS>ATOM
      1 CA        -45.0147  -29.1635    6.5313 C.3       0 UNK        -0.1975 
      2 C         -46.3916  -29.2315    5.8866 C.2       0 UNK         0.4852 
      3 O         -46.5674  -29.9309    4.8884 O.2       0 UNK        -0.5216 
      4 N         -47.3644  -28.5067    6.4472 N.am      1 UNK        -0.4461 
      5 CA        -48.7388  -28.4054    5.9692 C.3       1 UNK         0.0864 
      6 C6        -49.5983  -29.6225    6.3953 C.3       14 UNK        -0.0898 
      7 S7        -51.1602  -29.7230    5.4578 S.3       14 UNK        -0.2598 
      8 C8        -52.2791  -30.5014    6.6697 C.3       14 UNK         0.0286 
      9 C9        -52.5104  -29.6495    7.9130 C.ar      14 UNK        -0.0844 
     10 C10       -52.9747  -28.3346    7.7997 C.ar      14 UNK        -0.0881 
     11 C11       -53.1909  -27.5530    8.9382 C.ar      14 UNK        -0.0643 
     12 C12       -52.9730  -28.1180   10.1986 C.ar      14 UNK        -0.0930 
     13 C13       -52.5067  -29.4271   10.3329 C.ar      14 UNK        -0.0827 
     14 C14       -52.2696  -30.1858    9.1822 C.ar      14 UNK        -0.1249 
     15 C15       -52.1974  -29.9618   11.7277 C.3       14 UNK         0.0141 
     16 S16       -52.6280  -31.7140   12.0017 S.3       14 UNK        -0.2313 
     17 C17       -54.4573  -31.7810   11.9294 C.3       14 UNK        -0.0915 
     18 CA        -55.2773  -30.7574   12.7693 C.3       13 UNK         0.0968 
     19 C         -54.7975  -30.6075   14.2457 C.2       13 UNK         0.5732 
     20 N         -54.4260  -29.4219   14.7150 N.am      13 UNK        -0.7310 
     21 O         -54.7822  -31.5895   14.9842 O.2       13 UNK        -0.5035 
     22 N         -55.4730  -29.5046   12.0307 N.am      13 UNK        -0.4233 
     23 C         -56.4416  -28.6130   12.2689 C.2       13 UNK         0.4989 
     24 O         -57.3292  -28.7525   13.1129 O.2       13 UNK        -0.4996 
     25 CA        -56.4045  -27.3420   11.4051 C.3       12 UNK         0.0216 
     26 CB        -57.7613  -27.0958   10.7237 C.3       12 UNK        -0.1964 
     27 N         -56.0089  -26.1357   12.1390 N.am      12 UNK        -0.4276 
     28 C         -54.9646  -25.9888   12.9685 C.2       12 UNK         0.5020 
     29 O         -54.2113  -26.9060   13.3057 O.2       12 UNK        -0.5489 
     30 CA        -54.6774  -24.5473   13.4249 C.3       11 UNK         0.0294 
     31 CB        -55.9465  -23.7243   13.7492 C.3       11 UNK        -0.2019 
     32 N         -53.6791  -24.4931   14.4965 N.am      11 UNK        -0.4493 
     33 C         -53.8491  -24.6998   15.8090 C.2       11 UNK         0.4932 
     34 O         -54.9294  -24.9500   16.3475 O.2       11 UNK        -0.5029 
     35 CA        -52.5710  -24.5701   16.6573 C.3       10 UNK         0.0280 
     36 CB        -52.8318  -24.6205   18.1787 C.3       10 UNK        -0.1976 
     37 N         -51.5496  -25.5398   16.2549 N.am      10 UNK        -0.4242 
     38 C         -51.6075  -26.8778   16.3478 C.2       10 UNK         0.5072 
     39 O         -52.5457  -27.4962   16.8534 O.2       10 UNK        -0.5224 
     40 CA        -50.4163  -27.6825   15.7914 C.3       9 UNK         0.0343 
     41 CB        -50.8578  -28.5199   14.5830 C.3       9 UNK        -0.2003 
     42 N         -49.2669  -26.8621   15.3999 N.am      9 UNK        -0.4272 
     43 C         -48.4048  -26.2889   16.2501 C.2       9 UNK         0.4988 
     44 O         -48.4648  -26.4132   17.4737 O.2       9 UNK        -0.5108 
     45 CA        -47.3005  -25.4113   15.6351 C.3       8 UNK         0.0248 
     46 CB        -46.1084  -26.2765   15.1961 C.3       8 UNK        -0.2001 
     47 N         -47.7584  -24.5926   14.5066 N.am      8 UNK        -0.4140 
     48 C         -48.6860  -23.6266   14.5886 C.2       8 UNK         0.5028 
     49 O         -49.2676  -23.3221   15.6305 O.2       8 UNK        -0.5428 
     50 CA        -49.0639  -22.9053   13.2822 C.3       7 UNK         0.0264 
     51 CB        -47.9634  -21.9256   12.8445 C.3       7 UNK        -0.1988 
     52 N         -49.3668  -23.8372   12.1940 N.am      7 UNK        -0.4454 
     53 C         -50.3830  -24.7125   12.2160 C.2       7 UNK         0.5027 
     54 O         -51.2043  -24.7733   13.1322 O.2       7 UNK        -0.5083 
     55 CA        -50.4643  -25.7218   11.0510 C.3       6 UNK         0.0844 
     56 C56       -51.1788  -25.1365    9.8085 C.3       14 UNK        -0.0967 
     57 S57       -52.9813  -24.9424   10.0168 S.3       14 UNK        -0.2604 
     58 C58       -53.6618  -26.1073    8.7812 C.3       14 UNK         0.0134 
     59 N         -49.1478  -26.2574   10.6950 N.am      6 UNK        -0.4116 
     60 C         -48.3543  -26.9647   11.5102 C.2       5 UNK         0.5034 
     61 O         -48.6606  -27.3006   12.6516 O.2       5 UNK        -0.5045 
     62 CA        -46.9523  -27.3011   10.9818 C.3       5 UNK         0.0224 
     63 CB        -46.9971  -28.5088   10.0332 C.3       5 UNK        -0.1978 
     64 N         -46.3176  -26.1483   10.3303 N.am      5 UNK        -0.4737 
     65 C         -45.9383  -25.0462   10.9950 C.2       4 UNK         0.5027 
     66 O         -46.0669  -24.9073   12.2105 O.2       4 UNK        -0.5211 
     67 CA        -45.3422  -23.8903   10.1745 C.3       4 UNK         0.0297 
     68 CB        -43.8357  -24.1076    9.9629 C.3       4 UNK        -0.1993 
     69 N         -45.9906  -23.6572    8.8797 N.am      4 UNK        -0.4486 
     70 C         -47.2910  -23.3921    8.6919 C.2       3 UNK         0.4961 
     71 O         -48.1269  -23.3997    9.5976 O.2       3 UNK        -0.5105 
     72 CA        -47.7519  -23.0850    7.2584 C.3       3 UNK         0.0299 
     73 CB        -46.6330  -23.1277    6.1934 C.3       3 UNK        -0.1972 
     74 N         -48.7970  -24.0421    6.9292 N.am      3 UNK        -0.4305 
     75 C         -49.7713  -23.9115    6.0279 C.2       2 UNK         0.5006 
     76 O         -49.9063  -22.9224    5.3052 O.2       2 UNK        -0.5106 
     77 CA        -50.7549  -25.0996    5.9227 C.3       2 UNK         0.0296 
     78 CB        -51.8412  -24.8779    4.8538 C.3       2 UNK        -0.2002 
     79 N         -50.1068  -26.3945    5.6728 N.am      2 UNK        -0.4032 
     80 C         -49.2964  -27.0742    6.4982 C.2       1 UNK         0.5000 
     81 O         -48.9650  -26.6842    7.6256 O.2       1 UNK        -0.5238 
     82 H82       -44.9678  -28.4098    7.3169 H         1 UNK         0.0889 
     83 H83       -44.2617  -28.9165    5.7832 H         1 UNK         0.0889 
     84 H84       -44.7577  -30.1281    6.9682 H         1 UNK         0.0889 
     85 H85       -47.1769  -27.9157    7.2458 H         1 UNK         0.3028 
     86 H86       -48.7064  -28.3527    4.8784 H         1 UNK         0.0864 
     87 H87       -49.0563  -30.5506    6.2087 H         1 UNK         0.0720 
     88 H88       -49.7924  -29.6008    7.4694 H         1 UNK         0.0720 
     89 H89       -53.2410  -30.6868    6.1900 H         1 UNK         0.0814 
     90 H90       -51.8773  -31.4800    6.9371 H         1 UNK         0.0814 
     91 H91       -53.1535  -27.9169    6.8183 H         1 UNK         0.1469 
     92 H92       -53.1381  -27.5214   11.0836 H         1 UNK         0.1381 
     93 H93       -51.8934  -31.1953    9.2747 H         1 UNK         0.1206 
     94 H94       -52.6842  -29.3537   12.4893 H         1 UNK         0.0813 
     95 H95       -51.1255  -29.8485   11.8944 H         1 UNK         0.0813 
     96 H96       -54.7321  -32.7871   12.2504 H         1 UNK         0.0638 
     97 H97       -54.7548  -31.7313   10.8805 H         1 UNK         0.0638 
     98 H98       -56.2757  -31.1899   12.8600 H         1 UNK         0.0568 
     99 H99       -54.4298  -28.5926   14.1255 H         1 UNK         0.3450 
    100 H100      -54.1225  -29.3390   15.6722 H         1 UNK         0.3450 
    101 H101      -54.7721  -29.2961   11.3346 H         1 UNK         0.2987 
    102 H102      -55.6698  -27.4880   10.6139 H         1 UNK         0.0766 
    103 H103      -57.7076  -26.2692   10.0148 H         1 UNK         0.0798 
    104 H104      -58.5424  -26.8666   11.4500 H         1 UNK         0.0798 
    105 H105      -58.0838  -27.9765   10.1663 H         1 UNK         0.0798 
    106 H106      -56.5614  -25.3132   11.9484 H         1 UNK         0.3198 
    107 H107      -54.1923  -24.0618   12.5776 H         1 UNK         0.0843 
    108 H108      -55.6912  -22.7566   14.1813 H         1 UNK         0.0831 
    109 H109      -56.5988  -24.2423   14.4532 H         1 UNK         0.0831 
    110 H110      -56.5313  -23.5222   12.8517 H         1 UNK         0.0831 
    111 H111      -52.7207  -24.4408   14.1533 H         1 UNK         0.3133 
    112 H112      -52.1521  -23.5870   16.4362 H         1 UNK         0.0566 
    113 H113      -51.9075  -24.4970   18.7430 H         1 UNK         0.0814 
    114 H114      -53.5072  -23.8197   18.4816 H         1 UNK         0.0814 
    115 H115      -53.2899  -25.5610   18.4860 H         1 UNK         0.0814 
    116 H116      -50.7346  -25.1410   15.8054 H         1 UNK         0.3091 
    117 H117      -50.0932  -28.3674   16.5780 H         1 UNK         0.0702 
    118 H118      -51.6582  -29.2080   14.8548 H         1 UNK         0.0785 
    119 H119      -50.0370  -29.1212   14.1922 H         1 UNK         0.0785 
    120 H120      -51.2274  -27.8839   13.7770 H         1 UNK         0.0785 
    121 H121      -49.1014  -26.7717   14.3996 H         1 UNK         0.2998 
    122 H122      -46.9541  -24.7281   16.4133 H         1 UNK         0.0697 
    123 H123      -46.3812  -26.9573   14.3889 H         1 UNK         0.0825 
    124 H124      -45.7369  -26.8816   16.0241 H         1 UNK         0.0825 
    125 H125      -45.2793  -25.6608   14.8468 H         1 UNK         0.0825 
    126 H126      -47.3003  -24.7579   13.6120 H         1 UNK         0.3029 
    127 H127      -49.9692  -22.3263   13.4773 H         1 UNK         0.0897 
    128 H128      -48.2532  -21.3799   11.9462 H         1 UNK         0.0792 
    129 H129      -47.7675  -21.1882   13.6240 H         1 UNK         0.0792 
    130 H130      -47.0233  -22.4351   12.6358 H         1 UNK         0.0792 
    131 H131      -48.7648  -23.8087   11.3745 H         1 UNK         0.3086 
    132 H132      -51.0434  -26.5709   11.4151 H         1 UNK         0.0583 
    133 H133      -50.7461  -24.1785    9.5140 H         1 UNK         0.1020 
    134 H134      -51.0158  -25.8107    8.9702 H         1 UNK         0.1020 
    135 H135      -54.7498  -26.0858    8.8480 H         1 UNK         0.0694 
    136 H136      -53.4115  -25.7342    7.7875 H         1 UNK         0.0694 
    137 H137      -48.8155  -26.0546    9.7619 H         1 UNK         0.2989 
    138 H138      -46.3364  -27.5755   11.8416 H         1 UNK         0.1055 
    139 H139      -47.3581  -29.3942   10.5586 H         1 UNK         0.0806 
    140 H140      -46.0088  -28.7489    9.6417 H         1 UNK         0.0806 
    141 H141      -47.6707  -28.3435    9.1947 H         1 UNK         0.0806 
    142 H142      -46.1875  -26.1801    9.3305 H         1 UNK         0.3061 
    143 H143      -45.4708  -22.9797   10.7630 H         1 UNK         0.0734 
    144 H144      -43.3709  -23.2423    9.4900 H         1 UNK         0.0832 
    145 H145      -43.3270  -24.2636   10.9155 H         1 UNK         0.0832 
    146 H146      -43.6350  -24.9805    9.3406 H         1 UNK         0.0832 
    147 H147      -45.3853  -23.6381    8.0717 H         1 UNK         0.3156 
    148 H148      -48.1841  -22.0826    7.2740 H         1 UNK         0.0589 
    149 H149      -46.1838  -24.1183    6.1103 H         1 UNK         0.0808 
    150 H150      -47.0214  -22.8643    5.2093 H         1 UNK         0.0808 
    151 H151      -45.8414  -22.4113    6.4171 H         1 UNK         0.0808 
    152 H152      -48.7754  -24.9147    7.4542 H         1 UNK         0.3098 
    153 H153      -51.2660  -25.1619    6.8811 H         1 UNK         0.0720 
    154 H154      -52.5704  -25.6885    4.8545 H         1 UNK         0.0791 
    155 H155      -51.4141  -24.8093    3.8526 H         1 UNK         0.0791 
    156 H156      -52.3907  -23.9538    5.0389 H         1 UNK         0.0791 
    157 H157      -50.3005  -26.8046    4.7705 H         1 UNK         0.3028 
@<TRIPOS>BOND
     1    1    2 1    
     2    1   82 1    
     3    1   83 1    
     4    1   84 1    
     5    2    3 2    
     6    2    4 am   BACKBONE|DICT|INTERRES
     7    4    5 1    
     8    4   85 1    
     9    5    6 1    
    10    5   80 1    
    11    5   86 1    
    12    6    7 1    
    13    6   87 1    
    14    6   88 1    
    15    7    8 1    
    16    8    9 1    
    17    8   89 1    
    18    8   90 1    
    19    9   10 ar   
    20    9   14 ar   
    21   10   11 ar   
    22   10   91 1    
    23   11   12 ar   
    24   11   58 1    
    25   12   13 ar   
    26   12   92 1    
    27   13   14 ar   
    28   13   15 1    
    29   14   93 1    
    30   15   16 1    
    31   15   94 1    
    32   15   95 1    
    33   16   17 1    
    34   17   18 1    
    35   17   96 1    
    36   17   97 1    
    37   18   19 1    
    38   18   22 1    
    39   18   98 1    
    40   19   20 am   BACKBONE|DICT|INTERRES
    41   19   21 2    
    42   20   99 1    
    43   20  100 1    
    44   22   23 am   BACKBONE|DICT|INTERRES
    45   22  101 1    
    46   23   24 2    
    47   23   25 1    
    48   25   26 1    
    49   25   27 1    
    50   25  102 1    
    51   26  103 1    
    52   26  104 1    
    53   26  105 1    
    54   27   28 am   BACKBONE|DICT|INTERRES
    55   27  106 1    
    56   28   29 2    
    57   28   30 1    
    58   30   31 1    
    59   30   32 1    
    60   30  107 1    
    61   31  108 1    
    62   31  109 1    
    63   31  110 1    
    64   32   33 am   BACKBONE|DICT|INTERRES
    65   32  111 1    
    66   33   34 2    
    67   33   35 1    
    68   35   36 1    
    69   35   37 1    
    70   35  112 1    
    71   36  113 1    
    72   36  114 1    
    73   36  115 1    
    74   37   38 am   BACKBONE|DICT|INTERRES
    75   37  116 1    
    76   38   39 2    
    77   38   40 1    
    78   40   41 1    
    79   40   42 1    
    80   40  117 1    
    81   41  118 1    
    82   41  119 1    
    83   41  120 1    
    84   42   43 am   BACKBONE|DICT|INTERRES
    85   42  121 1    
    86   43   44 2    
    87   43   45 1    
    88   45   46 1    
    89   45   47 1    
    90   45  122 1    
    91   46  123 1    
    92   46  124 1    
    93   46  125 1    
    94   47   48 am   BACKBONE|DICT|INTERRES
    95   47  126 1    
    96   48   49 2    
    97   48   50 1    
    98   50   51 1    
    99   50   52 1    
   100   50  127 1    
   101   51  128 1    
   102   51  129 1    
   103   51  130 1    
   104   52   53 am   BACKBONE|DICT|INTERRES
   105   52  131 1    
   106   53   54 2    
   107   53   55 1    
   108   55   56 1    
   109   55   59 1    
   110   55  132 1    
   111   56   57 1    
   112   56  133 1    
   113   56  134 1    
   114   57   58 1    
   115   58  135 1    
   116   58  136 1    
   117   59   60 am   BACKBONE|DICT|INTERRES
   118   59  137 1    
   119   60   61 2    
   120   60   62 1    
   121   62   63 1    
   122   62   64 1    
   123   62  138 1    
   124   63  139 1    
   125   63  140 1    
   126   63  141 1    
   127   64   65 am   BACKBONE|DICT|INTERRES
   128   64  142 1    
   129   65   66 2    
   130   65   67 1    
   131   67   68 1    
   132   67   69 1    
   133   67  143 1    
   134   68  144 1    
   135   68  145 1    
   136   68  146 1    
   137   69   70 am   BACKBONE|DICT|INTERRES
   138   69  147 1    
   139   70   71 2    
   140   70   72 1    
   141   72   73 1    
   142   72   74 1    
   143   72  148 1    
   144   73  149 1    
   145   73  150 1    
   146   73  151 1    
   147   74   75 am   BACKBONE|DICT|INTERRES
   148   74  152 1    
   149   75   76 2    
   150   75   77 1    
   151   77   78 1    
   152   77   79 1    
   153   77  153 1    
   154   78  154 1    
   155   78  155 1    
   156   78  156 1    
   157   79   80 am   BACKBONE|DICT|INTERRES
   158   79  157 1    
   159   80   81 2    
@<TRIPOS>SUBSTRUCTURE
     1 UNK         1 GROUP             0       ****    0 ROOT    
