@<TRIPOS>MOLECULE
3R207
157   159    1
SMALL
USER_CHARGES


@<TRIPOS>ATOM
      1 CA        -47.0442  -28.5214    5.2020 C.3       0 UNK        -0.1975 
      2 C         -48.1216  -27.4610    5.3646 C.2       0 UNK         0.4852 
      3 O         -48.3068  -26.9477    6.4711 O.2       0 UNK        -0.5216 
      4 N         -48.8223  -27.1259    4.2711 N.am      1 UNK        -0.4461 
      5 CA        -49.9141  -26.1448    4.1896 C.3       1 UNK         0.0864 
      6 C6        -51.2113  -26.6141    4.9065 C.3       14 UNK        -0.0898 
      7 S7        -51.9105  -28.1372    4.1802 S.3       14 UNK        -0.2598 
      8 C8        -51.4444  -29.4169    5.3946 C.3       14 UNK         0.0286 
      9 C9        -52.1052  -29.1976    6.7485 C.ar      14 UNK        -0.0844 
     10 C10       -51.3627  -28.6900    7.8187 C.ar      14 UNK        -0.0881 
     11 C11       -51.9702  -28.4588    9.0550 C.ar      14 UNK        -0.0643 
     12 C12       -53.3275  -28.7448    9.2218 C.ar      14 UNK        -0.0930 
     13 C13       -54.0768  -29.2739    8.1665 C.ar      14 UNK        -0.0827 
     14 C14       -53.4584  -29.4995    6.9319 C.ar      14 UNK        -0.1249 
     15 C15       -55.5581  -29.5782    8.3456 C.3       14 UNK         0.0141 
     16 S16       -55.8313  -31.2281    9.0680 S.3       14 UNK        -0.2313 
     17 C17       -55.8253  -30.8629   10.8574 C.3       14 UNK        -0.0915 
     18 CA        -57.2627  -30.8198   11.4619 C.3       13 UNK         0.0968 
     19 C         -57.7707  -32.2073   11.9662 C.2       13 UNK         0.5732 
     20 N         -58.5816  -32.2702   13.0161 N.am      13 UNK        -0.7310 
     21 O         -57.4557  -33.2430   11.3849 O.2       13 UNK        -0.5035 
     22 N         -57.4419  -29.7085   12.4144 N.am      13 UNK        -0.4233 
     23 C         -56.7806  -29.5454   13.5673 C.2       13 UNK         0.4989 
     24 O         -55.9138  -30.3163   13.9864 O.2       13 UNK        -0.4996 
     25 CA        -57.2052  -28.3339   14.4153 C.3       12 UNK         0.0216 
     26 CB        -58.4432  -28.6779   15.2612 C.3       12 UNK        -0.1964 
     27 N         -56.1304  -27.8941   15.3068 N.am      12 UNK        -0.4276 
     28 C         -55.0597  -27.1928   14.9172 C.2       12 UNK         0.5020 
     29 O         -54.8829  -26.7884   13.7646 O.2       12 UNK        -0.5489 
     30 CA        -54.0001  -26.9303   15.9990 C.3       11 UNK         0.0294 
     31 CB        -53.0113  -28.1046   16.0848 C.3       11 UNK        -0.2019 
     32 N         -53.2512  -25.7077   15.7188 N.am      11 UNK        -0.4493 
     33 C         -53.6494  -24.4695   16.0335 C.2       11 UNK         0.4932 
     34 O         -54.7000  -24.2172   16.6271 O.2       11 UNK        -0.5029 
     35 CA        -52.6857  -23.3337   15.6322 C.3       10 UNK         0.0280 
     36 CB        -53.0855  -21.9578   16.2058 C.3       10 UNK        -0.1976 
     37 N         -51.2901  -23.6585   15.9537 N.am      10 UNK        -0.4242 
     38 C         -50.7629  -23.9085   17.1630 C.2       10 UNK         0.5072 
     39 O         -51.3777  -23.7888   18.2236 O.2       10 UNK        -0.5224 
     40 CA        -49.3069  -24.4119   17.2072 C.3       9 UNK         0.0343 
     41 CB        -49.2848  -25.9278   17.4655 C.3       9 UNK        -0.2003 
     42 N         -48.5445  -24.1311   15.9878 N.am      9 UNK        -0.4272 
     43 C         -48.0950  -22.9216   15.6239 C.2       9 UNK         0.4988 
     44 O         -48.2200  -21.9071   16.3103 O.2       9 UNK        -0.5108 
     45 CA        -47.4214  -22.8244   14.2434 C.3       8 UNK         0.0248 
     46 CB        -45.9535  -23.2761   14.3128 C.3       8 UNK        -0.2001 
     47 N         -48.1319  -23.5993   13.2219 N.am      8 UNK        -0.4140 
     48 C         -49.3643  -23.3151   12.7744 C.2       8 UNK         0.5028 
     49 O         -50.0135  -22.3299   13.1239 O.2       8 UNK        -0.5428 
     50 CA        -50.0009  -24.3269   11.8122 C.3       7 UNK         0.0264 
     51 CB        -49.5872  -24.0394   10.3593 C.3       7 UNK        -0.1988 
     52 N         -49.6576  -25.7033   12.1763 N.am      7 UNK        -0.4454 
     53 C         -50.2197  -26.3633   13.2017 C.2       7 UNK         0.5027 
     54 O         -51.0909  -25.8769   13.9212 O.2       7 UNK        -0.5083 
     55 CA        -49.7245  -27.7931   13.5061 C.3       6 UNK         0.0844 
     56 C56       -50.6092  -28.8612   12.8102 C.3       14 UNK        -0.0967 
     57 S57       -50.2030  -29.1683   11.0549 S.3       14 UNK        -0.2604 
     58 C58       -51.1650  -27.8795   10.2032 C.3       14 UNK         0.0134 
     59 N         -48.2969  -27.9784   13.2381 N.am      6 UNK        -0.4116 
     60 C         -47.3051  -27.2977   13.8272 C.2       5 UNK         0.5034 
     61 O         -47.4785  -26.4867   14.7361 O.2       5 UNK        -0.5045 
     62 CA        -45.8870  -27.5049   13.2666 C.3       5 UNK         0.0224 
     63 CB        -45.1521  -28.5944   14.0627 C.3       5 UNK        -0.1978 
     64 N         -45.8343  -27.8264   11.8327 N.am      5 UNK        -0.4737 
     65 C         -46.3538  -27.0768   10.8502 C.2       4 UNK         0.5027 
     66 O         -47.0169  -26.0567   11.0501 O.2       4 UNK        -0.5211 
     67 CA        -46.1403  -27.5931    9.4172 C.3       4 UNK         0.0297 
     68 CB        -47.1421  -28.7121    9.0930 C.3       4 UNK        -0.1993 
     69 N         -46.2813  -26.5347    8.4156 N.am      4 UNK        -0.4486 
     70 C         -45.4187  -25.5225    8.2471 C.2       3 UNK         0.4961 
     71 O         -44.3731  -25.4074    8.8885 O.2       3 UNK        -0.5105 
     72 CA        -45.7512  -24.4624    7.1851 C.3       3 UNK         0.0299 
     73 CB        -45.0679  -24.8001    5.8489 C.3       3 UNK        -0.1972 
     74 N         -47.1922  -24.3039    6.9646 N.am      3 UNK        -0.4305 
     75 C         -47.8324  -23.1270    6.9011 C.2       2 UNK         0.5006 
     76 O         -47.2763  -22.0403    7.0719 O.2       2 UNK        -0.5106 
     77 CA        -49.3487  -23.1576    6.6034 C.3       2 UNK         0.0296 
     78 CB        -49.8470  -21.8749    5.9026 C.3       2 UNK        -0.2002 
     79 N         -49.7876  -24.3572    5.8794 N.am      2 UNK        -0.4032 
     80 C         -49.4235  -24.7530    4.6482 C.2       1 UNK         0.5000 
     81 O         -48.6980  -24.0993    3.8960 O.2       1 UNK        -0.5238 
     82 H82       -46.8201  -28.7156    4.1533 H         1 UNK         0.0889 
     83 H83       -47.3687  -29.4550    5.6603 H         1 UNK         0.0889 
     84 H84       -46.1238  -28.2033    5.6908 H         1 UNK         0.0889 
     85 H85       -48.5928  -27.5705    3.3933 H         1 UNK         0.3028 
     86 H86       -50.1491  -26.0386    3.1292 H         1 UNK         0.0864 
     87 H87       -51.0400  -26.7588    5.9717 H         1 UNK         0.0720 
     88 H88       -51.9833  -25.8464    4.8266 H         1 UNK         0.0720 
     89 H89       -50.3589  -29.4467    5.4932 H         1 UNK         0.0814 
     90 H90       -51.7383  -30.3929    5.0058 H         1 UNK         0.0814 
     91 H91       -50.3137  -28.4601    7.6878 H         1 UNK         0.1469 
     92 H92       -53.7962  -28.5494   10.1752 H         1 UNK         0.1381 
     93 H93       -54.0329  -29.8970    6.1062 H         1 UNK         0.1206 
     94 H94       -56.0335  -28.8133    8.9615 H         1 UNK         0.0813 
     95 H95       -56.0623  -29.5376    7.3789 H         1 UNK         0.0813 
     96 H96       -55.3223  -29.9100   11.0119 H         1 UNK         0.0638 
     97 H97       -55.2008  -31.5979   11.3684 H         1 UNK         0.0638 
     98 H98       -57.9526  -30.5684   10.6558 H         1 UNK         0.0568 
     99 H99       -58.8619  -31.4333   13.5000 H         1 UNK         0.3450 
    100 H100      -58.9128  -33.1695   13.3278 H         1 UNK         0.3450 
    101 H101      -58.1586  -29.0410   12.1675 H         1 UNK         0.2987 
    102 H102      -57.4579  -27.5090   13.7450 H         1 UNK         0.0766 
    103 H103      -58.7650  -27.8244   15.8587 H         1 UNK         0.0798 
    104 H104      -58.2510  -29.5095   15.9408 H         1 UNK         0.0798 
    105 H105      -59.2862  -28.9614   14.6297 H         1 UNK         0.0798 
    106 H106      -56.1695  -28.2328   16.2574 H         1 UNK         0.3198 
    107 H107      -54.4994  -26.8240   16.9648 H         1 UNK         0.0843 
    108 H108      -52.4865  -28.2558   15.1421 H         1 UNK         0.0831 
    109 H109      -53.5266  -29.0362   16.3227 H         1 UNK         0.0831 
    110 H110      -52.2644  -27.9390   16.8615 H         1 UNK         0.0831 
    111 H111      -52.4220  -25.8063   15.1344 H         1 UNK         0.3133 
    112 H112      -52.7345  -23.2631   14.5445 H         1 UNK         0.0566 
    113 H113      -52.3907  -21.1804   15.8879 H         1 UNK         0.0814 
    114 H114      -54.0782  -21.6662   15.8610 H         1 UNK         0.0814 
    115 H115      -53.1096  -21.9620   17.2958 H         1 UNK         0.0814 
    116 H116      -50.6963  -23.8218   15.1520 H         1 UNK         0.3091 
    117 H117      -48.8113  -23.9135   18.0429 H         1 UNK         0.0702 
    118 H118      -48.2643  -26.3006   17.5565 H         1 UNK         0.0785 
    119 H119      -49.7720  -26.4790   16.6604 H         1 UNK         0.0785 
    120 H120      -49.8046  -26.1756   18.3919 H         1 UNK         0.0785 
    121 H121      -48.3146  -24.9315   15.4032 H         1 UNK         0.2998 
    122 H122      -47.4392  -21.7760   13.9379 H         1 UNK         0.0697 
    123 H123      -45.8609  -24.3166   14.6245 H         1 UNK         0.0825 
    124 H124      -45.3961  -22.6725   15.0303 H         1 UNK         0.0825 
    125 H125      -45.4587  -23.1695   13.3473 H         1 UNK         0.0825 
    126 H126      -47.6740  -24.4286   12.8678 H         1 UNK         0.3029 
    127 H127      -51.0855  -24.2127   11.8795 H         1 UNK         0.0897 
    128 H128      -50.0578  -24.7353    9.6655 H         1 UNK         0.0792 
    129 H129      -48.5080  -24.1016   10.2180 H         1 UNK         0.0792 
    130 H130      -49.8921  -23.0339   10.0668 H         1 UNK         0.0792 
    131 H131      -48.8795  -26.1227   11.6747 H         1 UNK         0.3086 
    132 H132      -49.8523  -27.9279   14.5823 H         1 UNK         0.0583 
    133 H133      -50.4814  -29.8110   13.3318 H         1 UNK         0.1020 
    134 H134      -51.6722  -28.6302   12.9073 H         1 UNK         0.1020 
    135 H135      -51.8288  -27.3658   10.8999 H         1 UNK         0.0694 
    136 H136      -50.4778  -27.1234    9.8220 H         1 UNK         0.0694 
    137 H137      -48.0673  -28.6100   12.4846 H         1 UNK         0.2989 
    138 H138      -45.3529  -26.5623   13.4045 H         1 UNK         0.1055 
    139 H139      -45.1581  -28.3691   15.1304 H         1 UNK         0.0806 
    140 H140      -44.1083  -28.6742   13.7583 H         1 UNK         0.0806 
    141 H141      -45.6166  -29.5729   13.9339 H         1 UNK         0.0806 
    142 H142      -45.3204  -28.6590   11.5798 H         1 UNK         0.3061 
    143 H143      -45.1282  -27.9973    9.3474 H         1 UNK         0.0734 
    144 H144      -46.9201  -29.1741    8.1319 H         1 UNK         0.0832 
    145 H145      -47.1169  -29.5048    9.8417 H         1 UNK         0.0832 
    146 H146      -48.1633  -28.3331    9.0506 H         1 UNK         0.0832 
    147 H147      -47.1078  -26.5913    7.8281 H         1 UNK         0.3156 
    148 H148      -45.3274  -23.5253    7.5519 H         1 UNK         0.0589 
    149 H149      -45.4529  -25.7255    5.4203 H         1 UNK         0.0808 
    150 H150      -45.2192  -24.0060    5.1174 H         1 UNK         0.0808 
    151 H151      -43.9915  -24.9211    5.9783 H         1 UNK         0.0808 
    152 H152      -47.7258  -25.1536    6.8057 H         1 UNK         0.3098 
    153 H153      -49.8397  -23.2025    7.5753 H         1 UNK         0.0720 
    154 H154      -50.9191  -21.9179    5.7110 H         1 UNK         0.0791 
    155 H155      -49.3416  -21.7104    4.9506 H         1 UNK         0.0791 
    156 H156      -49.6662  -20.9948    6.5210 H         1 UNK         0.0791 
    157 H157      -50.3533  -24.9990    6.4168 H         1 UNK         0.3028 
@<TRIPOS>BOND
     1    1    2 1    
     2    1   82 1    
     3    1   83 1    
     4    1   84 1    
     5    2    3 2    
     6    2    4 am   BACKBONE|DICT|INTERRES
     7    4    5 1    
     8    4   85 1    
     9    5    6 1    
    10    5   80 1    
    11    5   86 1    
    12    6    7 1    
    13    6   87 1    
    14    6   88 1    
    15    7    8 1    
    16    8    9 1    
    17    8   89 1    
    18    8   90 1    
    19    9   10 ar   
    20    9   14 ar   
    21   10   11 ar   
    22   10   91 1    
    23   11   12 ar   
    24   11   58 1    
    25   12   13 ar   
    26   12   92 1    
    27   13   14 ar   
    28   13   15 1    
    29   14   93 1    
    30   15   16 1    
    31   15   94 1    
    32   15   95 1    
    33   16   17 1    
    34   17   18 1    
    35   17   96 1    
    36   17   97 1    
    37   18   19 1    
    38   18   22 1    
    39   18   98 1    
    40   19   20 am   BACKBONE|DICT|INTERRES
    41   19   21 2    
    42   20   99 1    
    43   20  100 1    
    44   22   23 am   BACKBONE|DICT|INTERRES
    45   22  101 1    
    46   23   24 2    
    47   23   25 1    
    48   25   26 1    
    49   25   27 1    
    50   25  102 1    
    51   26  103 1    
    52   26  104 1    
    53   26  105 1    
    54   27   28 am   BACKBONE|DICT|INTERRES
    55   27  106 1    
    56   28   29 2    
    57   28   30 1    
    58   30   31 1    
    59   30   32 1    
    60   30  107 1    
    61   31  108 1    
    62   31  109 1    
    63   31  110 1    
    64   32   33 am   BACKBONE|DICT|INTERRES
    65   32  111 1    
    66   33   34 2    
    67   33   35 1    
    68   35   36 1    
    69   35   37 1    
    70   35  112 1    
    71   36  113 1    
    72   36  114 1    
    73   36  115 1    
    74   37   38 am   BACKBONE|DICT|INTERRES
    75   37  116 1    
    76   38   39 2    
    77   38   40 1    
    78   40   41 1    
    79   40   42 1    
    80   40  117 1    
    81   41  118 1    
    82   41  119 1    
    83   41  120 1    
    84   42   43 am   BACKBONE|DICT|INTERRES
    85   42  121 1    
    86   43   44 2    
    87   43   45 1    
    88   45   46 1    
    89   45   47 1    
    90   45  122 1    
    91   46  123 1    
    92   46  124 1    
    93   46  125 1    
    94   47   48 am   BACKBONE|DICT|INTERRES
    95   47  126 1    
    96   48   49 2    
    97   48   50 1    
    98   50   51 1    
    99   50   52 1    
   100   50  127 1    
   101   51  128 1    
   102   51  129 1    
   103   51  130 1    
   104   52   53 am   BACKBONE|DICT|INTERRES
   105   52  131 1    
   106   53   54 2    
   107   53   55 1    
   108   55   56 1    
   109   55   59 1    
   110   55  132 1    
   111   56   57 1    
   112   56  133 1    
   113   56  134 1    
   114   57   58 1    
   115   58  135 1    
   116   58  136 1    
   117   59   60 am   BACKBONE|DICT|INTERRES
   118   59  137 1    
   119   60   61 2    
   120   60   62 1    
   121   62   63 1    
   122   62   64 1    
   123   62  138 1    
   124   63  139 1    
   125   63  140 1    
   126   63  141 1    
   127   64   65 am   BACKBONE|DICT|INTERRES
   128   64  142 1    
   129   65   66 2    
   130   65   67 1    
   131   67   68 1    
   132   67   69 1    
   133   67  143 1    
   134   68  144 1    
   135   68  145 1    
   136   68  146 1    
   137   69   70 am   BACKBONE|DICT|INTERRES
   138   69  147 1    
   139   70   71 2    
   140   70   72 1    
   141   72   73 1    
   142   72   74 1    
   143   72  148 1    
   144   73  149 1    
   145   73  150 1    
   146   73  151 1    
   147   74   75 am   BACKBONE|DICT|INTERRES
   148   74  152 1    
   149   75   76 2    
   150   75   77 1    
   151   77   78 1    
   152   77   79 1    
   153   77  153 1    
   154   78  154 1    
   155   78  155 1    
   156   78  156 1    
   157   79   80 am   BACKBONE|DICT|INTERRES
   158   79  157 1    
   159   80   81 2    
@<TRIPOS>SUBSTRUCTURE
     1 UNK         1 GROUP             0       ****    0 ROOT    
