@<TRIPOS>MOLECULE
3R207
157   159    1
SMALL
USER_CHARGES


@<TRIPOS>ATOM
      1 CA        -45.9172  -31.7239    8.4148 C.3       0 UNK        -0.1975 
      2 C         -46.3844  -31.0265    7.1458 C.2       0 UNK         0.4852 
      3 O         -45.7670  -31.1917    6.0933 O.2       0 UNK        -0.5216 
      4 N         -47.4699  -30.2466    7.2396 N.am      1 UNK        -0.4461 
      5 CA        -48.0761  -29.5050    6.1249 C.3       1 UNK         0.0864 
      6 C6        -49.4634  -28.9356    6.5041 C.3       14 UNK        -0.0898 
      7 S7        -50.6862  -30.1776    7.0543 S.3       14 UNK        -0.2598 
      8 C8        -51.1828  -29.5562    8.7041 C.3       14 UNK         0.0286 
      9 C9        -52.2147  -28.4240    8.6884 C.ar      14 UNK        -0.0844 
     10 C10       -52.0856  -27.3354    7.8240 C.ar      14 UNK        -0.0881 
     11 C11       -52.9746  -26.2625    7.8623 C.ar      14 UNK        -0.0643 
     12 C12       -54.0384  -26.2951    8.7684 C.ar      14 UNK        -0.0930 
     13 C13       -54.2123  -27.3837    9.6328 C.ar      14 UNK        -0.0827 
     14 C14       -53.2849  -28.4370    9.5907 C.ar      14 UNK        -0.1249 
     15 C15       -55.4009  -27.3597   10.6002 C.3       14 UNK         0.0141 
     16 S16       -55.8505  -28.9677   11.3459 S.3       14 UNK        -0.2313 
     17 C17       -57.4019  -28.5407   12.2127 C.3       14 UNK        -0.0915 
     18 CA        -57.1755  -27.8483   13.5909 C.3       13 UNK         0.0968 
     19 C         -58.4774  -27.3699   14.3053 C.2       13 UNK         0.5732 
     20 N         -59.5712  -27.1529   13.5857 N.am      13 UNK        -0.7310 
     21 O         -58.4897  -27.1293   15.5117 O.2       13 UNK        -0.5035 
     22 N         -56.2669  -28.6071   14.4647 N.am      13 UNK        -0.4233 
     23 C         -56.5422  -29.7489   15.1085 C.2       13 UNK         0.4989 
     24 O         -57.6398  -30.3079   15.0676 O.2       13 UNK        -0.4996 
     25 CA        -55.4197  -30.4104   15.9279 C.3       12 UNK         0.0216 
     26 CB        -54.9122  -31.6794   15.2173 C.3       12 UNK        -0.1964 
     27 N         -54.2776  -29.5323   16.2121 N.am      12 UNK        -0.4276 
     28 C         -53.5269  -29.5972   17.3235 C.2       12 UNK         0.5020 
     29 O         -53.8087  -30.3110   18.2887 O.2       12 UNK        -0.5489 
     30 CA        -52.2351  -28.7433   17.3658 C.3       11 UNK         0.0294 
     31 CB        -51.1628  -29.3263   18.3104 C.3       11 UNK        -0.2019 
     32 N         -51.6657  -28.4781   16.0385 N.am      11 UNK        -0.4493 
     33 C         -51.3125  -29.3815   15.1079 C.2       11 UNK         0.4932 
     34 O         -51.1987  -30.5856   15.3404 O.2       11 UNK        -0.5029 
     35 CA        -51.0970  -28.8751   13.6616 C.3       10 UNK         0.0280 
     36 CB        -51.6865  -29.8512   12.6259 C.3       10 UNK        -0.1976 
     37 N         -51.5847  -27.5153   13.3863 N.am      10 UNK        -0.4242 
     38 C         -52.7974  -26.9922   13.6262 C.2       10 UNK         0.5072 
     39 O         -53.7380  -27.6371   14.0922 O.2       10 UNK        -0.5224 
     40 CA        -52.9423  -25.4715   13.4094 C.3       9 UNK         0.0343 
     41 CB        -54.1467  -24.8720   14.1624 C.3       9 UNK        -0.2003 
     42 N         -51.7198  -24.7286   13.7451 N.am      9 UNK        -0.4272 
     43 C         -51.0199  -24.7627   14.8912 C.2       9 UNK         0.4988 
     44 O         -51.3764  -25.3958   15.8870 O.2       9 UNK        -0.5108 
     45 CA        -49.6588  -24.0365   14.9213 C.3       8 UNK         0.0248 
     46 CB        -48.5206  -25.0611   15.0670 C.3       8 UNK        -0.2001 
     47 N         -49.3982  -23.2177   13.7329 N.am      8 UNK        -0.4140 
     48 C         -49.9273  -22.0076   13.5062 C.2       8 UNK         0.5028 
     49 O         -50.6272  -21.4022   14.3185 O.2       8 UNK        -0.5428 
     50 CA        -49.6740  -21.3905   12.1181 C.3       7 UNK         0.0264 
     51 CB        -48.3162  -20.6720   12.0757 C.3       7 UNK        -0.1988 
     52 N         -49.7550  -22.3690   11.0261 N.am      7 UNK        -0.4454 
     53 C         -50.8568  -23.0708   10.7164 C.2       7 UNK         0.5027 
     54 O         -51.9291  -22.9491   11.3076 O.2       7 UNK        -0.5083 
     55 CA        -50.7452  -24.1067    9.5814 C.3       6 UNK         0.0844 
     56 C56       -50.9230  -23.3991    8.2153 C.3       14 UNK        -0.0967 
     57 S57       -51.0430  -24.5309    6.7966 S.3       14 UNK        -0.2604 
     58 C58       -52.7846  -25.0866    6.9071 C.3       14 UNK         0.0134 
     59 N         -49.5201  -24.9104    9.6978 N.am      6 UNK        -0.4116 
     60 C         -49.2632  -25.7294   10.7322 C.2       5 UNK         0.5034 
     61 O         -50.0699  -25.9803   11.6239 O.2       5 UNK        -0.5045 
     62 CA        -47.8493  -26.3135   10.8564 C.3       5 UNK         0.0224 
     63 CB        -47.7142  -27.6420   10.0966 C.3       5 UNK        -0.1978 
     64 N         -46.8310  -25.3569   10.4224 N.am      5 UNK        -0.4737 
     65 C         -46.4887  -24.2689   11.1286 C.2       4 UNK         0.5027 
     66 O         -46.9571  -24.0036   12.2354 O.2       4 UNK        -0.5211 
     67 CA        -45.4923  -23.2932   10.4779 C.3       4 UNK         0.0297 
     68 CB        -44.0491  -23.6943   10.8200 C.3       4 UNK        -0.1993 
     69 N         -45.6449  -23.2084    9.0234 N.am      4 UNK        -0.4486 
     70 C         -46.7306  -22.7308    8.3978 C.2       3 UNK         0.4961 
     71 O         -47.6918  -22.2330    8.9838 O.2       3 UNK        -0.5105 
     72 CA        -46.7778  -22.9007    6.8666 C.3       3 UNK         0.0299 
     73 CB        -46.1483  -21.6847    6.1697 C.3       3 UNK        -0.1972 
     74 N         -46.1289  -24.1338    6.3963 N.am      3 UNK        -0.4305 
     75 C         -46.5119  -25.3674    6.7543 C.2       2 UNK         0.5006 
     76 O         -47.4711  -25.5862    7.4979 O.2       2 UNK        -0.5106 
     77 CA        -45.6286  -26.5351    6.2811 C.3       2 UNK         0.0296 
     78 CB        -44.3186  -26.5736    7.0879 C.3       2 UNK        -0.2002 
     79 N         -46.3269  -27.8063    6.4737 N.am      2 UNK        -0.4032 
     80 C         -47.1982  -28.3409    5.6080 C.2       1 UNK         0.5000 
     81 O         -47.3585  -27.9281    4.4574 O.2       1 UNK        -0.5238 
     82 H82       -44.8956  -31.4275    8.6512 H         1 UNK         0.0889 
     83 H83       -45.9352  -32.8046    8.2765 H         1 UNK         0.0889 
     84 H84       -46.5471  -31.4812    9.2704 H         1 UNK         0.0889 
     85 H85       -47.9606  -30.1868    8.1197 H         1 UNK         0.3028 
     86 H86       -48.2068  -30.2024    5.2945 H         1 UNK         0.0864 
     87 H87       -49.9008  -28.4184    5.6472 H         1 UNK         0.0720 
     88 H88       -49.3378  -28.1837    7.2841 H         1 UNK         0.0720 
     89 H89       -51.5821  -30.4060    9.2597 H         1 UNK         0.0814 
     90 H90       -50.3014  -29.2255    9.2531 H         1 UNK         0.0814 
     91 H91       -51.2824  -27.2914    7.1121 H         1 UNK         0.1469 
     92 H92       -54.7378  -25.4707    8.7982 H         1 UNK         0.1381 
     93 H93       -53.3866  -29.2734   10.2659 H         1 UNK         0.1206 
     94 H94       -55.1802  -26.6537   11.4011 H         1 UNK         0.0813 
     95 H95       -56.2750  -26.9729   10.0741 H         1 UNK         0.0813 
     96 H96       -57.9759  -29.4592   12.3451 H         1 UNK         0.0638 
     97 H97       -57.9899  -27.9072   11.5475 H         1 UNK         0.0638 
     98 H98       -56.6445  -26.9208   13.3862 H         1 UNK         0.0568 
     99 H99       -60.4022  -26.8214   14.0500 H         1 UNK         0.3450 
    100 H100      -59.5864  -27.3236   12.5931 H         1 UNK         0.3450 
    101 H101      -55.3228  -28.2305   14.4929 H         1 UNK         0.2987 
    102 H102      -55.8817  -30.7079   16.8716 H         1 UNK         0.0766 
    103 H103      -55.7322  -32.3646   14.9981 H         1 UNK         0.0798 
    104 H104      -54.1951  -32.2207   15.8349 H         1 UNK         0.0798 
    105 H105      -54.4236  -31.4387   14.2721 H         1 UNK         0.0798 
    106 H106      -53.9786  -28.9064   15.4676 H         1 UNK         0.3198 
    107 H107      -52.5324  -27.7716   17.7632 H         1 UNK         0.0843 
    108 H108      -50.8641  -30.3314   18.0114 H         1 UNK         0.0831 
    109 H109      -51.5346  -29.3893   19.3338 H         1 UNK         0.0831 
    110 H110      -50.2697  -28.7018   18.3301 H         1 UNK         0.0831 
    111 H111      -51.6875  -27.5025   15.7579 H         1 UNK         0.3133 
    112 H112      -50.0169  -28.8430   13.5132 H         1 UNK         0.0566 
    113 H113      -52.7726  -29.9152   12.7042 H         1 UNK         0.0814 
    114 H114      -51.2877  -30.8586   12.7500 H         1 UNK         0.0814 
    115 H115      -51.4376  -29.5332   11.6155 H         1 UNK         0.0814 
    116 H116      -50.9132  -26.8964   12.9326 H         1 UNK         0.3091 
    117 H117      -53.1051  -25.3295   12.3400 H         1 UNK         0.0702 
    118 H118      -54.2147  -23.7957   14.0038 H         1 UNK         0.0785 
    119 H119      -54.0805  -25.0496   15.2364 H         1 UNK         0.0785 
    120 H120      -55.0827  -25.3064   13.8153 H         1 UNK         0.0785 
    121 H121      -51.3393  -24.1848   12.9806 H         1 UNK         0.2998 
    122 H122      -49.6530  -23.3897   15.8009 H         1 UNK         0.0697 
    123 H123      -47.5497  -24.5694   15.1323 H         1 UNK         0.0825 
    124 H124      -48.4896  -25.7493   14.2214 H         1 UNK         0.0825 
    125 H125      -48.6418  -25.6594   15.9711 H         1 UNK         0.0825 
    126 H126      -48.7621  -23.6058   13.0419 H         1 UNK         0.3029 
    127 H127      -50.4547  -20.6467   11.9446 H         1 UNK         0.0897 
    128 H128      -48.2681  -19.8878   12.8323 H         1 UNK         0.0792 
    129 H129      -48.1456  -20.2003   11.1077 H         1 UNK         0.0792 
    130 H130      -47.4896  -21.3562   12.2653 H         1 UNK         0.0792 
    131 H131      -48.9293  -22.4748   10.4409 H         1 UNK         0.3086 
    132 H132      -51.5824  -24.7939    9.7126 H         1 UNK         0.0583 
    133 H133      -51.8181  -22.7733    8.2197 H         1 UNK         0.1020 
    134 H134      -50.0917  -22.7186    8.0265 H         1 UNK         0.1020 
    135 H135      -53.4220  -24.2467    7.1871 H         1 UNK         0.0694 
    136 H136      -53.1090  -25.4005    5.9142 H         1 UNK         0.0694 
    137 H137      -48.8228  -24.8049    8.9700 H         1 UNK         0.2989 
    138 H138      -47.6771  -26.5248   11.9144 H         1 UNK         0.1055 
    139 H139      -48.3833  -28.3921   10.5197 H         1 UNK         0.0806 
    140 H140      -46.7012  -28.0384   10.1646 H         1 UNK         0.0806 
    141 H141      -47.9687  -27.5376    9.0444 H         1 UNK         0.0806 
    142 H142      -46.4790  -25.4630    9.4811 H         1 UNK         0.3061 
    143 H143      -45.6793  -22.3009   10.8931 H         1 UNK         0.0734 
    144 H144      -43.7922  -24.6734   10.4135 H         1 UNK         0.0832 
    145 H145      -43.3325  -22.9698   10.4330 H         1 UNK         0.0832 
    146 H146      -43.9055  -23.7431   11.9005 H         1 UNK         0.0832 
    147 H147      -44.8965  -23.5854    8.4611 H         1 UNK         0.3156 
    148 H148      -47.8298  -22.9525    6.5774 H         1 UNK         0.0589 
    149 H149      -46.2590  -21.7460    5.0869 H         1 UNK         0.0808 
    150 H150      -45.0851  -21.5925    6.3952 H         1 UNK         0.0808 
    151 H151      -46.6305  -20.7599    6.4902 H         1 UNK         0.0808 
    152 H152      -45.3305  -24.0259    5.7865 H         1 UNK         0.3098 
    153 H153      -45.3952  -26.3969    5.2232 H         1 UNK         0.0720 
    154 H154      -43.7326  -25.6661    6.9378 H         1 UNK         0.0791 
    155 H155      -43.6921  -27.4113    6.7805 H         1 UNK         0.0791 
    156 H156      -44.5023  -26.6716    8.1589 H         1 UNK         0.0791 
    157 H157      -46.2875  -28.2028    7.3998 H         1 UNK         0.3028 
@<TRIPOS>BOND
     1    1    2 1    
     2    1   82 1    
     3    1   83 1    
     4    1   84 1    
     5    2    3 2    
     6    2    4 am   BACKBONE|DICT|INTERRES
     7    4    5 1    
     8    4   85 1    
     9    5    6 1    
    10    5   80 1    
    11    5   86 1    
    12    6    7 1    
    13    6   87 1    
    14    6   88 1    
    15    7    8 1    
    16    8    9 1    
    17    8   89 1    
    18    8   90 1    
    19    9   10 ar   
    20    9   14 ar   
    21   10   11 ar   
    22   10   91 1    
    23   11   12 ar   
    24   11   58 1    
    25   12   13 ar   
    26   12   92 1    
    27   13   14 ar   
    28   13   15 1    
    29   14   93 1    
    30   15   16 1    
    31   15   94 1    
    32   15   95 1    
    33   16   17 1    
    34   17   18 1    
    35   17   96 1    
    36   17   97 1    
    37   18   19 1    
    38   18   22 1    
    39   18   98 1    
    40   19   20 am   BACKBONE|DICT|INTERRES
    41   19   21 2    
    42   20   99 1    
    43   20  100 1    
    44   22   23 am   BACKBONE|DICT|INTERRES
    45   22  101 1    
    46   23   24 2    
    47   23   25 1    
    48   25   26 1    
    49   25   27 1    
    50   25  102 1    
    51   26  103 1    
    52   26  104 1    
    53   26  105 1    
    54   27   28 am   BACKBONE|DICT|INTERRES
    55   27  106 1    
    56   28   29 2    
    57   28   30 1    
    58   30   31 1    
    59   30   32 1    
    60   30  107 1    
    61   31  108 1    
    62   31  109 1    
    63   31  110 1    
    64   32   33 am   BACKBONE|DICT|INTERRES
    65   32  111 1    
    66   33   34 2    
    67   33   35 1    
    68   35   36 1    
    69   35   37 1    
    70   35  112 1    
    71   36  113 1    
    72   36  114 1    
    73   36  115 1    
    74   37   38 am   BACKBONE|DICT|INTERRES
    75   37  116 1    
    76   38   39 2    
    77   38   40 1    
    78   40   41 1    
    79   40   42 1    
    80   40  117 1    
    81   41  118 1    
    82   41  119 1    
    83   41  120 1    
    84   42   43 am   BACKBONE|DICT|INTERRES
    85   42  121 1    
    86   43   44 2    
    87   43   45 1    
    88   45   46 1    
    89   45   47 1    
    90   45  122 1    
    91   46  123 1    
    92   46  124 1    
    93   46  125 1    
    94   47   48 am   BACKBONE|DICT|INTERRES
    95   47  126 1    
    96   48   49 2    
    97   48   50 1    
    98   50   51 1    
    99   50   52 1    
   100   50  127 1    
   101   51  128 1    
   102   51  129 1    
   103   51  130 1    
   104   52   53 am   BACKBONE|DICT|INTERRES
   105   52  131 1    
   106   53   54 2    
   107   53   55 1    
   108   55   56 1    
   109   55   59 1    
   110   55  132 1    
   111   56   57 1    
   112   56  133 1    
   113   56  134 1    
   114   57   58 1    
   115   58  135 1    
   116   58  136 1    
   117   59   60 am   BACKBONE|DICT|INTERRES
   118   59  137 1    
   119   60   61 2    
   120   60   62 1    
   121   62   63 1    
   122   62   64 1    
   123   62  138 1    
   124   63  139 1    
   125   63  140 1    
   126   63  141 1    
   127   64   65 am   BACKBONE|DICT|INTERRES
   128   64  142 1    
   129   65   66 2    
   130   65   67 1    
   131   67   68 1    
   132   67   69 1    
   133   67  143 1    
   134   68  144 1    
   135   68  145 1    
   136   68  146 1    
   137   69   70 am   BACKBONE|DICT|INTERRES
   138   69  147 1    
   139   70   71 2    
   140   70   72 1    
   141   72   73 1    
   142   72   74 1    
   143   72  148 1    
   144   73  149 1    
   145   73  150 1    
   146   73  151 1    
   147   74   75 am   BACKBONE|DICT|INTERRES
   148   74  152 1    
   149   75   76 2    
   150   75   77 1    
   151   77   78 1    
   152   77   79 1    
   153   77  153 1    
   154   78  154 1    
   155   78  155 1    
   156   78  156 1    
   157   79   80 am   BACKBONE|DICT|INTERRES
   158   79  157 1    
   159   80   81 2    
@<TRIPOS>SUBSTRUCTURE
     1 UNK         1 GROUP             0       ****    0 ROOT    
