@<TRIPOS>MOLECULE
3R207
157   159    1
SMALL
USER_CHARGES


@<TRIPOS>ATOM
      1 CA        -48.4748  -29.1163    8.2955 C.3       0 UNK        -0.1975 
      2 C         -48.7733  -28.7954    6.8425 C.2       0 UNK         0.4852 
      3 O         -47.8876  -28.9044    5.9926 O.2       0 UNK        -0.5216 
      4 N         -50.0124  -28.3807    6.5494 N.am      1 UNK        -0.4461 
      5 CA        -50.4485  -27.9653    5.2137 C.3       1 UNK         0.0864 
      6 C6        -51.9759  -27.7362    5.1354 C.3       14 UNK        -0.0898 
      7 S7        -52.8849  -29.2945    5.4176 S.3       14 UNK        -0.2598 
      8 C8        -54.0094  -28.8684    6.7860 C.3       14 UNK         0.0286 
      9 C9        -53.2773  -28.4762    8.0627 C.ar      14 UNK        -0.0844 
     10 C10       -53.4355  -27.1920    8.5899 C.ar      14 UNK        -0.0881 
     11 C11       -52.8120  -26.8351    9.7876 C.ar      14 UNK        -0.0643 
     12 C12       -52.0014  -27.7635   10.4481 C.ar      14 UNK        -0.0930 
     13 C13       -51.8305  -29.0500    9.9276 C.ar      14 UNK        -0.0827 
     14 C14       -52.4766  -29.4025    8.7383 C.ar      14 UNK        -0.1249 
     15 C15       -50.9367  -30.0538   10.6424 C.3       14 UNK         0.0141 
     16 S16       -51.6659  -30.6652   12.1900 S.3       14 UNK        -0.2313 
     17 C17       -53.0803  -31.6617   11.6012 C.3       14 UNK        -0.0915 
     18 CA        -54.4528  -31.1576   12.1196 C.3       13 UNK         0.0968 
     19 C         -54.5857  -31.3188   13.6643 C.2       13 UNK         0.5732 
     20 N         -54.5541  -30.2465   14.4487 N.am      13 UNK        -0.7310 
     21 O         -54.7300  -32.4370   14.1533 O.2       13 UNK        -0.5035 
     22 N         -54.7587  -29.8093   11.6232 N.am      13 UNK        -0.4233 
     23 C         -55.9807  -29.2652   11.6353 C.2       13 UNK         0.4989 
     24 O         -57.0109  -29.8789   11.9216 O.2       13 UNK        -0.4996 
     25 CA        -56.0597  -27.7614   11.3304 C.3       12 UNK         0.0216 
     26 CB        -57.1826  -27.4364   10.3308 C.3       12 UNK        -0.1964 
     27 N         -56.2532  -26.9921   12.5615 N.am      12 UNK        -0.4276 
     28 C         -55.3564  -26.9108   13.5527 C.2       12 UNK         0.5020 
     29 O         -54.2318  -27.4209   13.5085 O.2       12 UNK        -0.5489 
     30 CA        -55.7970  -26.1737   14.8214 C.3       11 UNK         0.0294 
     31 CB        -56.7360  -27.0613   15.6625 C.3       11 UNK        -0.2019 
     32 N         -54.5930  -25.8469   15.5765 N.am      11 UNK        -0.4493 
     33 C         -54.4903  -25.0177   16.6198 C.2       11 UNK         0.4932 
     34 O         -55.4475  -24.3979   17.0860 O.2       11 UNK        -0.5029 
     35 CA        -53.0901  -24.8050   17.2337 C.3       10 UNK         0.0280 
     36 CB        -53.1070  -24.9098   18.7732 C.3       10 UNK        -0.1976 
     37 N         -52.0264  -25.6370   16.6519 N.am      10 UNK        -0.4242 
     38 C         -51.8573  -26.9650   16.7530 C.2       10 UNK         0.5072 
     39 O         -52.6100  -27.7126   17.3776 O.2       10 UNK        -0.5224 
     40 CA        -50.6486  -27.5701   16.0160 C.3       9 UNK         0.0343 
     41 CB        -51.0364  -27.9605   14.5816 C.3       9 UNK        -0.2003 
     42 N         -49.4742  -26.6928   15.9822 N.am      9 UNK        -0.4272 
     43 C         -48.7399  -26.3630   17.0562 C.2       9 UNK         0.4988 
     44 O         -48.9815  -26.7509   18.1997 O.2       9 UNK        -0.5108 
     45 CA        -47.5270  -25.4519   16.8166 C.3       8 UNK         0.0248 
     46 CB        -46.3319  -26.2653   16.2914 C.3       8 UNK        -0.2001 
     47 N         -47.8472  -24.3826   15.8711 N.am      8 UNK        -0.4140 
     48 C         -48.3183  -23.1771   16.2200 C.2       8 UNK         0.5028 
     49 O         -48.4597  -22.8068   17.3861 O.2       8 UNK        -0.5428 
     50 CA        -48.7055  -22.2146   15.0803 C.3       7 UNK         0.0264 
     51 CB        -47.5242  -21.2965   14.7272 C.3       7 UNK        -0.1988 
     52 N         -49.1689  -22.8924   13.8659 N.am      7 UNK        -0.4454 
     53 C         -50.2850  -23.6319   13.7866 C.2       7 UNK         0.5027 
     54 O         -51.0652  -23.7911   14.7240 O.2       7 UNK        -0.5083 
     55 CA        -50.5581  -24.3591   12.4565 C.3       6 UNK         0.0844 
     56 C56       -51.4462  -23.4888   11.5335 C.3       14 UNK        -0.0967 
     57 S57       -51.7671  -24.2880    9.9243 S.3       14 UNK        -0.2604 
     58 C58       -53.0653  -25.4665   10.3961 C.3       14 UNK         0.0134 
     59 N         -49.3501  -24.8174   11.7681 N.am      6 UNK        -0.4116 
     60 C         -48.3503  -25.5618   12.2551 C.2       5 UNK         0.5034 
     61 O         -48.2954  -25.9415   13.4257 O.2       5 UNK        -0.5045 
     62 CA        -47.2218  -25.9495   11.2762 C.3       5 UNK         0.0224 
     63 CB        -47.0184  -27.4736   11.2657 C.3       5 UNK        -0.1978 
     64 N         -47.4308  -25.4767    9.8972 N.am      5 UNK        -0.4737 
     65 C         -47.3180  -24.2019    9.4953 C.2       4 UNK         0.5027 
     66 O         -47.0018  -23.2824   10.2516 O.2       4 UNK        -0.5211 
     67 CA        -47.6661  -23.9143    8.0213 C.3       4 UNK         0.0297 
     68 CB        -47.3317  -22.4687    7.5965 C.3       4 UNK        -0.1993 
     69 N         -47.0801  -24.8769    7.0811 N.am      4 UNK        -0.4486 
     70 C         -45.7742  -25.1408    6.8995 C.2       3 UNK         0.4961 
     71 O         -44.8700  -24.6300    7.5610 O.2       3 UNK        -0.5105 
     72 CA        -45.3955  -26.1385    5.7869 C.3       3 UNK         0.0299 
     73 CB        -44.9300  -27.4715    6.3949 C.3       3 UNK        -0.1972 
     74 N         -46.4792  -26.3802    4.8273 N.am      3 UNK        -0.4305 
     75 C         -46.8616  -25.4940    3.8917 C.2       2 UNK         0.5006 
     76 O         -46.2827  -24.4244    3.6970 O.2       2 UNK        -0.5106 
     77 CA        -48.0988  -25.8257    3.0320 C.3       2 UNK         0.0296 
     78 CB        -47.6691  -26.2727    1.6248 C.3       2 UNK        -0.2002 
     79 N         -48.9909  -26.8387    3.6035 N.am      2 UNK        -0.4032 
     80 C         -49.6573  -26.7227    4.7605 C.2       1 UNK         0.5000 
     81 O         -49.6130  -25.7240    5.4847 O.2       1 UNK        -0.5238 
     82 H82       -47.4253  -28.9313    8.5211 H         1 UNK         0.0889 
     83 H83       -48.6880  -30.1646    8.5008 H         1 UNK         0.0889 
     84 H84       -49.0784  -28.4965    8.9564 H         1 UNK         0.0889 
     85 H85       -50.7118  -28.3109    7.2766 H         1 UNK         0.3028 
     86 H86       -50.2044  -28.7849    4.5335 H         1 UNK         0.0864 
     87 H87       -52.2589  -27.3661    4.1482 H         1 UNK         0.0720 
     88 H88       -52.2910  -26.9732    5.8494 H         1 UNK         0.0720 
     89 H89       -54.6455  -29.7291    6.9970 H         1 UNK         0.0814 
     90 H90       -54.6778  -28.0712    6.4567 H         1 UNK         0.0814 
     91 H91       -54.0653  -26.4739    8.0825 H         1 UNK         0.1469 
     92 H92       -51.5179  -27.4910   11.3764 H         1 UNK         0.1381 
     93 H93       -52.3575  -30.3983    8.3330 H         1 UNK         0.1206 
     94 H94       -50.7020  -30.9007    9.9958 H         1 UNK         0.0813 
     95 H95       -49.9853  -29.5798   10.8842 H         1 UNK         0.0813 
     96 H96       -53.0860  -31.6815   10.5109 H         1 UNK         0.0638 
     97 H97       -52.9168  -32.6960   11.9088 H         1 UNK         0.0638 
     98 H98       -55.2057  -31.8231   11.6932 H         1 UNK         0.0568 
     99 H99       -54.3994  -29.3253   14.0531 H         1 UNK         0.3450 
    100 H100      -54.6370  -30.3625   15.4451 H         1 UNK         0.3450 
    101 H101      -53.9577  -29.2265   11.4209 H         1 UNK         0.2987 
    102 H102      -55.1189  -27.4494   10.8846 H         1 UNK         0.0766 
    103 H103      -57.0515  -27.9989    9.4053 H         1 UNK         0.0798 
    104 H104      -57.1849  -26.3786   10.0675 H         1 UNK         0.0798 
    105 H105      -58.1671  -27.6868   10.7283 H         1 UNK         0.0798 
    106 H106      -57.1648  -26.5784   12.6948 H         1 UNK         0.3198 
    107 H107      -56.3032  -25.2486   14.5382 H         1 UNK         0.0843 
    108 H108      -56.2408  -27.9810   15.9772 H         1 UNK         0.0831 
    109 H109      -57.6240  -27.3465   15.0972 H         1 UNK         0.0831 
    110 H110      -57.0809  -26.5458   16.5587 H         1 UNK         0.0831 
    111 H111      -53.7647  -26.3123   15.2241 H         1 UNK         0.3133 
    112 H112      -52.8162  -23.7789   16.9846 H         1 UNK         0.0566 
    113 H113      -52.1163  -24.7359   19.1935 H         1 UNK         0.0814 
    114 H114      -53.4489  -25.8885   19.1107 H         1 UNK         0.0814 
    115 H115      -53.7772  -24.1674   19.2082 H         1 UNK         0.0814 
    116 H116      -51.3906  -25.1216   16.0478 H         1 UNK         0.3091 
    117 H117      -50.3637  -28.4811   16.5466 H         1 UNK         0.0702 
    118 H118      -50.2016  -28.4171   14.0495 H         1 UNK         0.0785 
    119 H119      -51.3743  -27.1013   14.0047 H         1 UNK         0.0785 
    120 H120      -51.8532  -28.6837   14.5851 H         1 UNK         0.0785 
    121 H121      -49.1627  -26.3769   15.0681 H         1 UNK         0.2998 
    122 H122      -47.2377  -25.0179   17.7763 H         1 UNK         0.0697 
    123 H123      -46.5488  -26.7415   15.3345 H         1 UNK         0.0825 
    124 H124      -46.0611  -27.0551   16.9933 H         1 UNK         0.0825 
    125 H125      -45.4525  -25.6349   16.1591 H         1 UNK         0.0825 
    126 H126      -47.8097  -24.6281   14.8884 H         1 UNK         0.3029 
    127 H127      -49.5251  -21.5924   15.4469 H         1 UNK         0.0897 
    128 H128      -46.6789  -21.8596   14.3291 H         1 UNK         0.0792 
    129 H129      -47.1713  -20.7587   15.6085 H         1 UNK         0.0792 
    130 H130      -47.8092  -20.5487   13.9869 H         1 UNK         0.0792 
    131 H131      -48.5818  -22.8170   13.0468 H         1 UNK         0.3086 
    132 H132      -51.1194  -25.2587   12.7073 H         1 UNK         0.0583 
    133 H133      -52.3993  -23.2580   12.0146 H         1 UNK         0.1020 
    134 H134      -50.9681  -22.5271   11.3360 H         1 UNK         0.1020 
    135 H135      -53.1292  -25.5644   11.4806 H         1 UNK         0.0694 
    136 H136      -54.0324  -25.0764   10.0749 H         1 UNK         0.0694 
    137 H137      -49.3029  -24.5731   10.7905 H         1 UNK         0.2989 
    138 H138      -46.3068  -25.4887   11.6552 H         1 UNK         0.1055 
    139 H139      -47.9313  -28.0008   10.9907 H         1 UNK         0.0806 
    140 H140      -46.2295  -27.7687   10.5736 H         1 UNK         0.0806 
    141 H141      -46.7276  -27.8333   12.2539 H         1 UNK         0.0806 
    142 H142      -47.6950  -26.1691    9.2121 H         1 UNK         0.3061 
    143 H143      -48.7478  -24.0343    7.9387 H         1 UNK         0.0734 
    144 H144      -46.2671  -22.2538    7.6943 H         1 UNK         0.0832 
    145 H145      -47.6176  -22.2839    6.5610 H         1 UNK         0.0832 
    146 H146      -47.8670  -21.7458    8.2134 H         1 UNK         0.0832 
    147 H147      -47.7484  -25.3392    6.4733 H         1 UNK         0.3156 
    148 H148      -44.5513  -25.7115    5.2412 H         1 UNK         0.0589 
    149 H149      -44.6804  -28.1991    5.6224 H         1 UNK         0.0808 
    150 H150      -44.0370  -27.3274    7.0046 H         1 UNK         0.0808 
    151 H151      -45.6898  -27.9111    7.0399 H         1 UNK         0.0808 
    152 H152      -46.9990  -27.2444    4.9395 H         1 UNK         0.3098 
    153 H153      -48.6746  -24.9028    2.9351 H         1 UNK         0.0720 
    154 H154      -47.0311  -25.5231    1.1540 H         1 UNK         0.0791 
    155 H155      -48.5304  -26.4158    0.9719 H         1 UNK         0.0791 
    156 H156      -47.1070  -27.2072    1.6521 H         1 UNK         0.0791 
    157 H157      -49.0633  -27.7062    3.0910 H         1 UNK         0.3028 
@<TRIPOS>BOND
     1    1    2 1    
     2    1   82 1    
     3    1   83 1    
     4    1   84 1    
     5    2    3 2    
     6    2    4 am   BACKBONE|DICT|INTERRES
     7    4    5 1    
     8    4   85 1    
     9    5    6 1    
    10    5   80 1    
    11    5   86 1    
    12    6    7 1    
    13    6   87 1    
    14    6   88 1    
    15    7    8 1    
    16    8    9 1    
    17    8   89 1    
    18    8   90 1    
    19    9   10 ar   
    20    9   14 ar   
    21   10   11 ar   
    22   10   91 1    
    23   11   12 ar   
    24   11   58 1    
    25   12   13 ar   
    26   12   92 1    
    27   13   14 ar   
    28   13   15 1    
    29   14   93 1    
    30   15   16 1    
    31   15   94 1    
    32   15   95 1    
    33   16   17 1    
    34   17   18 1    
    35   17   96 1    
    36   17   97 1    
    37   18   19 1    
    38   18   22 1    
    39   18   98 1    
    40   19   20 am   BACKBONE|DICT|INTERRES
    41   19   21 2    
    42   20   99 1    
    43   20  100 1    
    44   22   23 am   BACKBONE|DICT|INTERRES
    45   22  101 1    
    46   23   24 2    
    47   23   25 1    
    48   25   26 1    
    49   25   27 1    
    50   25  102 1    
    51   26  103 1    
    52   26  104 1    
    53   26  105 1    
    54   27   28 am   BACKBONE|DICT|INTERRES
    55   27  106 1    
    56   28   29 2    
    57   28   30 1    
    58   30   31 1    
    59   30   32 1    
    60   30  107 1    
    61   31  108 1    
    62   31  109 1    
    63   31  110 1    
    64   32   33 am   BACKBONE|DICT|INTERRES
    65   32  111 1    
    66   33   34 2    
    67   33   35 1    
    68   35   36 1    
    69   35   37 1    
    70   35  112 1    
    71   36  113 1    
    72   36  114 1    
    73   36  115 1    
    74   37   38 am   BACKBONE|DICT|INTERRES
    75   37  116 1    
    76   38   39 2    
    77   38   40 1    
    78   40   41 1    
    79   40   42 1    
    80   40  117 1    
    81   41  118 1    
    82   41  119 1    
    83   41  120 1    
    84   42   43 am   BACKBONE|DICT|INTERRES
    85   42  121 1    
    86   43   44 2    
    87   43   45 1    
    88   45   46 1    
    89   45   47 1    
    90   45  122 1    
    91   46  123 1    
    92   46  124 1    
    93   46  125 1    
    94   47   48 am   BACKBONE|DICT|INTERRES
    95   47  126 1    
    96   48   49 2    
    97   48   50 1    
    98   50   51 1    
    99   50   52 1    
   100   50  127 1    
   101   51  128 1    
   102   51  129 1    
   103   51  130 1    
   104   52   53 am   BACKBONE|DICT|INTERRES
   105   52  131 1    
   106   53   54 2    
   107   53   55 1    
   108   55   56 1    
   109   55   59 1    
   110   55  132 1    
   111   56   57 1    
   112   56  133 1    
   113   56  134 1    
   114   57   58 1    
   115   58  135 1    
   116   58  136 1    
   117   59   60 am   BACKBONE|DICT|INTERRES
   118   59  137 1    
   119   60   61 2    
   120   60   62 1    
   121   62   63 1    
   122   62   64 1    
   123   62  138 1    
   124   63  139 1    
   125   63  140 1    
   126   63  141 1    
   127   64   65 am   BACKBONE|DICT|INTERRES
   128   64  142 1    
   129   65   66 2    
   130   65   67 1    
   131   67   68 1    
   132   67   69 1    
   133   67  143 1    
   134   68  144 1    
   135   68  145 1    
   136   68  146 1    
   137   69   70 am   BACKBONE|DICT|INTERRES
   138   69  147 1    
   139   70   71 2    
   140   70   72 1    
   141   72   73 1    
   142   72   74 1    
   143   72  148 1    
   144   73  149 1    
   145   73  150 1    
   146   73  151 1    
   147   74   75 am   BACKBONE|DICT|INTERRES
   148   74  152 1    
   149   75   76 2    
   150   75   77 1    
   151   77   78 1    
   152   77   79 1    
   153   77  153 1    
   154   78  154 1    
   155   78  155 1    
   156   78  156 1    
   157   79   80 am   BACKBONE|DICT|INTERRES
   158   79  157 1    
   159   80   81 2    
@<TRIPOS>SUBSTRUCTURE
     1 UNK         1 GROUP             0       ****    0 ROOT    
