@<TRIPOS>MOLECULE
3R207
157   159    1
SMALL
USER_CHARGES


@<TRIPOS>ATOM
      1 CA        -45.7383  -26.7443    4.0115 C.3       0 UNK        -0.1975 
      2 C         -46.9152  -25.9644    4.5773 C.2       0 UNK         0.4852 
      3 O         -46.8927  -24.7325    4.5798 O.2       0 UNK        -0.5216 
      4 N         -47.9397  -26.6723    5.0702 N.am      1 UNK        -0.4461 
      5 CA        -49.1414  -26.1110    5.6957 C.3       1 UNK         0.0864 
      6 C6        -50.1816  -27.2232    5.9752 C.3       14 UNK        -0.0898 
      7 S7        -51.8986  -26.6160    5.9343 S.3       14 UNK        -0.2598 
      8 C8        -52.8201  -28.1700    6.1826 C.3       14 UNK         0.0286 
      9 C9        -52.8052  -28.6213    7.6377 C.ar      14 UNK        -0.0844 
     10 C10       -51.7500  -29.3947    8.1293 C.ar      14 UNK        -0.0881 
     11 C11       -51.7209  -29.7975    9.4671 C.ar      14 UNK        -0.0643 
     12 C12       -52.7774  -29.4482   10.3147 C.ar      14 UNK        -0.0930 
     13 C13       -53.8602  -28.7104    9.8230 C.ar      14 UNK        -0.0827 
     14 C14       -53.8603  -28.2857    8.4905 C.ar      14 UNK        -0.1249 
     15 C15       -55.0569  -28.4128   10.7113 C.3       14 UNK         0.0141 
     16 S16       -56.2157  -29.8152   10.6717 S.3       14 UNK        -0.2313 
     17 C17       -57.7743  -29.0544   11.2386 C.3       14 UNK        -0.0915 
     18 CA        -57.7764  -28.6033   12.7233 C.3       13 UNK         0.0968 
     19 C         -59.1952  -28.1250   13.1390 C.2       13 UNK         0.5732 
     20 N         -59.4989  -26.8471   12.9557 N.am      13 UNK        -0.7310 
     21 O         -60.0338  -28.9101   13.5790 O.2       13 UNK        -0.5035 
     22 N         -57.2173  -29.6355   13.6068 N.am      13 UNK        -0.4233 
     23 C         -56.9728  -29.4887   14.9134 C.2       13 UNK         0.4989 
     24 O         -57.2716  -28.4844   15.5616 O.2       13 UNK        -0.4996 
     25 CA        -56.2199  -30.6285   15.6283 C.3       12 UNK         0.0216 
     26 CB        -56.0947  -31.9375   14.8123 C.3       12 UNK        -0.1964 
     27 N         -54.9085  -30.1475   16.0821 N.am      12 UNK        -0.4276 
     28 C         -53.9177  -29.6820   15.3068 C.2       12 UNK         0.5020 
     29 O         -53.8990  -29.7552   14.0759 O.2       12 UNK        -0.5489 
     30 CA        -52.7697  -28.9575   16.0248 C.3       11 UNK         0.0294 
     31 CB        -51.4096  -29.5981   15.7040 C.3       11 UNK        -0.2019 
     32 N         -52.7613  -27.5607   15.5960 N.am      11 UNK        -0.4493 
     33 C         -53.6441  -26.6389   16.0028 C.2       11 UNK         0.4932 
     34 O         -54.4652  -26.8282   16.9022 O.2       11 UNK        -0.5029 
     35 CA        -53.5797  -25.2823   15.2781 C.3       10 UNK         0.0280 
     36 CB        -54.5749  -24.2404   15.8316 C.3       10 UNK        -0.1976 
     37 N         -52.2154  -24.7498   15.2418 N.am      10 UNK        -0.4242 
     38 C         -51.4385  -24.4050   16.2804 C.2       10 UNK         0.5072 
     39 O         -51.8043  -24.4219   17.4564 O.2       10 UNK        -0.5224 
     40 CA        -49.9914  -23.9848   15.9616 C.3       9 UNK         0.0343 
     41 CB        -49.0182  -25.1112   16.3484 C.3       9 UNK        -0.2003 
     42 N         -49.7802  -23.6452   14.5528 N.am      9 UNK        -0.4272 
     43 C         -50.2162  -22.5308   13.9499 C.2       9 UNK         0.4988 
     44 O         -50.7938  -21.6138   14.5340 O.2       9 UNK        -0.5108 
     45 CA        -49.9972  -22.4446   12.4305 C.3       8 UNK         0.0248 
     46 CB        -48.5655  -21.9884   12.1042 C.3       8 UNK        -0.2001 
     47 N         -50.2773  -23.7158   11.7567 N.am      8 UNK        -0.4140 
     48 C         -51.5031  -24.2319   11.5824 C.2       8 UNK         0.5028 
     49 O         -52.5377  -23.6863   11.9646 O.2       8 UNK        -0.5428 
     50 CA        -51.5909  -25.5935   10.8742 C.3       7 UNK         0.0264 
     51 CB        -51.6394  -25.4008    9.3548 C.3       7 UNK        -0.1988 
     52 N         -50.4805  -26.4840   11.2181 N.am      7 UNK        -0.4454 
     53 C         -50.3590  -27.0847   12.4096 C.2       7 UNK         0.5027 
     54 O         -51.1705  -26.9490   13.3269 O.2       7 UNK        -0.5083 
     55 CA        -49.0955  -27.9360   12.6471 C.3       6 UNK         0.0844 
     56 C56       -49.2721  -29.3970   12.1645 C.3       14 UNK        -0.0967 
     57 S57       -49.1006  -29.6301   10.3592 S.3       14 UNK        -0.2604 
     58 C58       -50.5610  -30.6450    9.9662 C.3       14 UNK         0.0134 
     59 N         -47.8592  -27.3197   12.1504 N.am      6 UNK        -0.4116 
     60 C         -47.3958  -26.1125   12.4956 C.2       5 UNK         0.5034 
     61 O         -48.0015  -25.3412   13.2365 O.2       5 UNK        -0.5045 
     62 CA        -46.0469  -25.6550   11.9223 C.3       5 UNK         0.0224 
     63 CB        -44.8913  -26.0179   12.8743 C.3       5 UNK        -0.1978 
     64 N         -45.7714  -26.0823   10.5454 N.am      5 UNK        -0.4737 
     65 C         -45.5080  -27.3070   10.0632 C.2       4 UNK         0.5027 
     66 O         -45.5331  -28.3264   10.7523 O.2       4 UNK        -0.5211 
     67 CA        -45.1726  -27.4215    8.5617 C.3       4 UNK         0.0297 
     68 CB        -46.0857  -28.4434    7.8606 C.3       4 UNK        -0.1993 
     69 N         -45.2677  -26.1268    7.8785 N.am      4 UNK        -0.4486 
     70 C         -44.2653  -25.2374    7.7910 C.2       3 UNK         0.4961 
     71 O         -43.1136  -25.4766    8.1532 O.2       3 UNK        -0.5105 
     72 CA        -44.5920  -23.8324    7.2471 C.3       3 UNK         0.0299 
     73 CB        -43.9472  -23.6094    5.8692 C.3       3 UNK        -0.1972 
     74 N         -46.0301  -23.5542    7.1724 N.am      3 UNK        -0.4305 
     75 C         -46.8019  -23.2757    8.2355 C.2       2 UNK         0.5006 
     76 O         -46.3717  -23.2010    9.3863 O.2       2 UNK        -0.5106 
     77 CA        -48.3159  -23.1232    7.9909 C.3       2 UNK         0.0296 
     78 CB        -48.6716  -21.6634    7.6712 C.3       2 UNK        -0.2002 
     79 N         -48.8205  -24.0012    6.9291 N.am      2 UNK        -0.4032 
     80 C         -48.7595  -25.3394    6.9765 C.2       1 UNK         0.5000 
     81 O         -48.3420  -25.9589    7.9574 O.2       1 UNK        -0.5238 
     82 H82       -45.4249  -26.3152    3.0602 H         1 UNK         0.0889 
     83 H83       -45.9898  -27.7911    3.8422 H         1 UNK         0.0889 
     84 H84       -44.8948  -26.7041    4.7000 H         1 UNK         0.0889 
     85 H85       -47.8896  -27.6807    5.0560 H         1 UNK         0.3028 
     86 H86       -49.5678  -25.4090    4.9755 H         1 UNK         0.0864 
     87 H87       -50.1117  -28.0032    5.2151 H         1 UNK         0.0720 
     88 H88       -49.9815  -27.7150    6.9274 H         1 UNK         0.0720 
     89 H89       -52.4117  -28.9510    5.5395 H         1 UNK         0.0814 
     90 H90       -53.8493  -28.0193    5.8535 H         1 UNK         0.0814 
     91 H91       -50.9426  -29.6846    7.4718 H         1 UNK         0.1469 
     92 H92       -52.7767  -29.7752   11.3463 H         1 UNK         0.1381 
     93 H93       -54.6936  -27.7102    8.1109 H         1 UNK         0.1206 
     94 H94       -55.5586  -27.5037   10.3764 H         1 UNK         0.0813 
     95 H95       -54.7333  -28.2347   11.7386 H         1 UNK         0.0813 
     96 H96       -58.0033  -28.2111   10.5845 H         1 UNK         0.0638 
     97 H97       -58.5633  -29.7897   11.0682 H         1 UNK         0.0638 
     98 H98       -57.1064  -27.7456   12.8084 H         1 UNK         0.0568 
     99 H99       -60.4209  -26.5241   13.2040 H         1 UNK         0.3450 
    100 H100      -58.8256  -26.1971   12.5814 H         1 UNK         0.3450 
    101 H101      -56.9137  -30.4820   13.1498 H         1 UNK         0.2987 
    102 H102      -56.7960  -30.8566   16.5264 H         1 UNK         0.0766 
    103 H103      -55.6035  -32.7143   15.3984 H         1 UNK         0.0798 
    104 H104      -55.5193  -31.8096   13.8949 H         1 UNK         0.0798 
    105 H105      -57.0773  -32.3221   14.5357 H         1 UNK         0.0798 
    106 H106      -54.8362  -29.9868   17.0776 H         1 UNK         0.3198 
    107 H107      -52.9225  -28.9979   17.1056 H         1 UNK         0.0843 
    108 H108      -51.2056  -29.5891   14.6339 H         1 UNK         0.0831 
    109 H109      -51.3816  -30.6374   16.0331 H         1 UNK         0.0831 
    110 H110      -50.5953  -29.0740   16.2047 H         1 UNK         0.0831 
    111 H111      -52.1581  -27.3337   14.8061 H         1 UNK         0.3133 
    112 H112      -53.8544  -25.4773   14.2402 H         1 UNK         0.0566 
    113 H113      -54.3924  -24.0198   16.8837 H         1 UNK         0.0814 
    114 H114      -54.5162  -23.3040   15.2766 H         1 UNK         0.0814 
    115 H115      -55.6005  -24.6025   15.7503 H         1 UNK         0.0814 
    116 H116      -51.7889  -24.7291   14.3256 H         1 UNK         0.3091 
    117 H117      -49.7611  -23.1051   16.5661 H         1 UNK         0.0702 
    118 H118      -47.9825  -24.8177   16.1759 H         1 UNK         0.0785 
    119 H119      -49.2081  -26.0197   15.7745 H         1 UNK         0.0785 
    120 H120      -49.1122  -25.3658   17.4049 H         1 UNK         0.0785 
    121 H121      -49.2444  -24.3177   14.0048 H         1 UNK         0.2998 
    122 H122      -50.6874  -21.6947   12.0377 H         1 UNK         0.0697 
    123 H123      -47.8191  -22.7011   12.4561 H         1 UNK         0.0825 
    124 H124      -48.3462  -21.0298   12.5763 H         1 UNK         0.0825 
    125 H125      -48.4235  -21.8586   11.0314 H         1 UNK         0.0825 
    126 H126      -49.4810  -24.2601   11.4600 H         1 UNK         0.3029 
    127 H127      -52.5203  -26.0780   11.1833 H         1 UNK         0.0897 
    128 H128      -50.8003  -24.8087    8.9940 H         1 UNK         0.0792 
    129 H129      -52.5542  -24.8888    9.0543 H         1 UNK         0.0792 
    130 H130      -51.6181  -26.3598    8.8404 H         1 UNK         0.0792 
    131 H131      -49.7866  -26.6670   10.5056 H         1 UNK         0.3086 
    132 H132      -48.9792  -27.9818   13.7322 H         1 UNK         0.0583 
    133 H133      -48.5165  -30.0228   12.6420 H         1 UNK         0.1020 
    134 H134      -50.2292  -29.7956   12.5041 H         1 UNK         0.1020 
    135 H135      -50.2818  -31.3602    9.1910 H         1 UNK         0.0694 
    136 H136      -50.8584  -31.2454   10.8270 H         1 UNK         0.0694 
    137 H137      -47.2755  -27.8904   11.5462 H         1 UNK         0.2989 
    138 H138      -46.0952  -24.5654   11.8766 H         1 UNK         0.1055 
    139 H139      -45.0589  -25.5953   13.8660 H         1 UNK         0.0806 
    140 H140      -43.9412  -25.6255   12.5119 H         1 UNK         0.0806 
    141 H141      -44.7847  -27.0960   12.9978 H         1 UNK         0.0806 
    142 H142      -45.7762  -25.3222    9.8762 H         1 UNK         0.3061 
    143 H143      -44.1480  -27.7923    8.4910 H         1 UNK         0.0734 
    144 H144      -45.9399  -29.4409    8.2770 H         1 UNK         0.0832 
    145 H145      -45.8709  -28.5054    6.7942 H         1 UNK         0.0832 
    146 H146      -47.1414  -28.2024    7.9816 H         1 UNK         0.0832 
    147 H147      -46.2031  -25.8432    7.6118 H         1 UNK         0.3156 
    148 H148      -44.1459  -23.1132    7.9375 H         1 UNK         0.0589 
    149 H149      -44.3145  -24.3149    5.1253 H         1 UNK         0.0808 
    150 H150      -44.1395  -22.6022    5.4993 H         1 UNK         0.0808 
    151 H151      -42.8645  -23.7316    5.9223 H         1 UNK         0.0808 
    152 H152      -46.4621  -23.6591    6.2586 H         1 UNK         0.3098 
    153 H153      -48.8218  -23.3988    8.9183 H         1 UNK         0.0720 
    154 H154      -49.7502  -21.5267    7.5907 H         1 UNK         0.0791 
    155 H155      -48.2188  -21.3317    6.7359 H         1 UNK         0.0791 
    156 H156      -48.3203  -20.9950    8.4587 H         1 UNK         0.0791 
    157 H157      -49.1380  -23.5557    6.0797 H         1 UNK         0.3028 
@<TRIPOS>BOND
     1    1    2 1    
     2    1   82 1    
     3    1   83 1    
     4    1   84 1    
     5    2    3 2    
     6    2    4 am   BACKBONE|DICT|INTERRES
     7    4    5 1    
     8    4   85 1    
     9    5    6 1    
    10    5   80 1    
    11    5   86 1    
    12    6    7 1    
    13    6   87 1    
    14    6   88 1    
    15    7    8 1    
    16    8    9 1    
    17    8   89 1    
    18    8   90 1    
    19    9   10 ar   
    20    9   14 ar   
    21   10   11 ar   
    22   10   91 1    
    23   11   12 ar   
    24   11   58 1    
    25   12   13 ar   
    26   12   92 1    
    27   13   14 ar   
    28   13   15 1    
    29   14   93 1    
    30   15   16 1    
    31   15   94 1    
    32   15   95 1    
    33   16   17 1    
    34   17   18 1    
    35   17   96 1    
    36   17   97 1    
    37   18   19 1    
    38   18   22 1    
    39   18   98 1    
    40   19   20 am   BACKBONE|DICT|INTERRES
    41   19   21 2    
    42   20   99 1    
    43   20  100 1    
    44   22   23 am   BACKBONE|DICT|INTERRES
    45   22  101 1    
    46   23   24 2    
    47   23   25 1    
    48   25   26 1    
    49   25   27 1    
    50   25  102 1    
    51   26  103 1    
    52   26  104 1    
    53   26  105 1    
    54   27   28 am   BACKBONE|DICT|INTERRES
    55   27  106 1    
    56   28   29 2    
    57   28   30 1    
    58   30   31 1    
    59   30   32 1    
    60   30  107 1    
    61   31  108 1    
    62   31  109 1    
    63   31  110 1    
    64   32   33 am   BACKBONE|DICT|INTERRES
    65   32  111 1    
    66   33   34 2    
    67   33   35 1    
    68   35   36 1    
    69   35   37 1    
    70   35  112 1    
    71   36  113 1    
    72   36  114 1    
    73   36  115 1    
    74   37   38 am   BACKBONE|DICT|INTERRES
    75   37  116 1    
    76   38   39 2    
    77   38   40 1    
    78   40   41 1    
    79   40   42 1    
    80   40  117 1    
    81   41  118 1    
    82   41  119 1    
    83   41  120 1    
    84   42   43 am   BACKBONE|DICT|INTERRES
    85   42  121 1    
    86   43   44 2    
    87   43   45 1    
    88   45   46 1    
    89   45   47 1    
    90   45  122 1    
    91   46  123 1    
    92   46  124 1    
    93   46  125 1    
    94   47   48 am   BACKBONE|DICT|INTERRES
    95   47  126 1    
    96   48   49 2    
    97   48   50 1    
    98   50   51 1    
    99   50   52 1    
   100   50  127 1    
   101   51  128 1    
   102   51  129 1    
   103   51  130 1    
   104   52   53 am   BACKBONE|DICT|INTERRES
   105   52  131 1    
   106   53   54 2    
   107   53   55 1    
   108   55   56 1    
   109   55   59 1    
   110   55  132 1    
   111   56   57 1    
   112   56  133 1    
   113   56  134 1    
   114   57   58 1    
   115   58  135 1    
   116   58  136 1    
   117   59   60 am   BACKBONE|DICT|INTERRES
   118   59  137 1    
   119   60   61 2    
   120   60   62 1    
   121   62   63 1    
   122   62   64 1    
   123   62  138 1    
   124   63  139 1    
   125   63  140 1    
   126   63  141 1    
   127   64   65 am   BACKBONE|DICT|INTERRES
   128   64  142 1    
   129   65   66 2    
   130   65   67 1    
   131   67   68 1    
   132   67   69 1    
   133   67  143 1    
   134   68  144 1    
   135   68  145 1    
   136   68  146 1    
   137   69   70 am   BACKBONE|DICT|INTERRES
   138   69  147 1    
   139   70   71 2    
   140   70   72 1    
   141   72   73 1    
   142   72   74 1    
   143   72  148 1    
   144   73  149 1    
   145   73  150 1    
   146   73  151 1    
   147   74   75 am   BACKBONE|DICT|INTERRES
   148   74  152 1    
   149   75   76 2    
   150   75   77 1    
   151   77   78 1    
   152   77   79 1    
   153   77  153 1    
   154   78  154 1    
   155   78  155 1    
   156   78  156 1    
   157   79   80 am   BACKBONE|DICT|INTERRES
   158   79  157 1    
   159   80   81 2    
@<TRIPOS>SUBSTRUCTURE
     1 UNK         1 GROUP             0       ****    0 ROOT    
