@<TRIPOS>MOLECULE
3R207
157   159    1
SMALL
USER_CHARGES


@<TRIPOS>ATOM
      1 CA        -46.8441  -25.4294    5.2394 C.3       0 UNK        -0.1975 
      2 C         -47.8613  -26.4153    5.7916 C.2       0 UNK         0.4852 
      3 O         -47.8778  -26.6688    6.9992 O.2       0 UNK        -0.5216 
      4 N         -48.7088  -26.9725    4.9165 N.am      1 UNK        -0.4461 
      5 CA        -49.7341  -27.9633    5.2590 C.3       1 UNK         0.0864 
      6 C6        -50.6749  -28.2787    4.0705 C.3       14 UNK        -0.0898 
      7 S7        -51.5370  -26.8056    3.4253 S.3       14 UNK        -0.2598 
      8 C8        -53.1575  -26.9247    4.2493 C.3       14 UNK         0.0286 
      9 C9        -53.0850  -26.4576    5.6954 C.ar      14 UNK        -0.0844 
     10 C10       -53.1693  -25.0951    5.9926 C.ar      14 UNK        -0.0881 
     11 C11       -53.0977  -24.6484    7.3151 C.ar      14 UNK        -0.0643 
     12 C12       -52.9401  -25.5793    8.3485 C.ar      14 UNK        -0.0930 
     13 C13       -52.8618  -26.9475    8.0639 C.ar      14 UNK        -0.0827 
     14 C14       -52.9398  -27.3794    6.7355 C.ar      14 UNK        -0.1249 
     15 C15       -52.6807  -27.9656    9.1810 C.3       14 UNK         0.0141 
     16 S16       -54.1556  -29.0092    9.3718 S.3       14 UNK        -0.2313 
     17 C17       -53.5210  -30.3501   10.4331 C.3       14 UNK        -0.0915 
     18 CA        -54.3623  -30.5126   11.7274 C.3       13 UNK         0.0968 
     19 C         -54.1038  -31.8768   12.4348 C.2       13 UNK         0.5732 
     20 N         -53.9929  -31.9437   13.7563 N.am      13 UNK        -0.7310 
     21 O         -54.0198  -32.9097   11.7745 O.2       13 UNK        -0.5035 
     22 N         -54.1987  -29.3531   12.6200 N.am      13 UNK        -0.4233 
     23 C         -55.1968  -28.7071   13.2333 C.2       13 UNK         0.4989 
     24 O         -56.3902  -28.9590   13.0536 O.2       13 UNK        -0.4996 
     25 CA        -54.7814  -27.6050   14.2335 C.3       12 UNK         0.0216 
     26 CB        -55.9566  -27.1371   15.1170 C.3       12 UNK        -0.1964 
     27 N         -53.6289  -27.9627   15.0766 N.am      12 UNK        -0.4276 
     28 C         -53.4861  -29.0647   15.8323 C.2       12 UNK         0.5020 
     29 O         -54.3050  -29.9824   15.8809 O.2       12 UNK        -0.5489 
     30 CA        -52.2041  -29.1668   16.6679 C.3       11 UNK         0.0294 
     31 CB        -50.9883  -29.4650   15.7732 C.3       11 UNK        -0.2019 
     32 N         -51.9824  -27.9347   17.4243 N.am      11 UNK        -0.4493 
     33 C         -52.4521  -27.7098   18.6608 C.2       11 UNK         0.4932 
     34 O         -53.0573  -28.5498   19.3273 O.2       11 UNK        -0.5029 
     35 CA        -52.2054  -26.3155   19.2689 C.3       10 UNK         0.0280 
     36 CB        -50.9261  -26.3212   20.1212 C.3       10 UNK        -0.1976 
     37 N         -52.1068  -25.2618   18.2575 N.am      10 UNK        -0.4242 
     38 C         -53.1345  -24.8058   17.5267 C.2       10 UNK         0.5072 
     39 O         -54.3065  -25.1265   17.7222 O.2       10 UNK        -0.5224 
     40 CA        -52.8000  -23.8508   16.3648 C.3       9 UNK         0.0343 
     41 CB        -53.0835  -22.3938   16.7627 C.3       9 UNK        -0.2003 
     42 N         -51.4174  -23.9562   15.8845 N.am      9 UNK        -0.4272 
     43 C         -50.8624  -25.0365   15.3214 C.2       9 UNK         0.4988 
     44 O         -51.4762  -26.0902   15.1366 O.2       9 UNK        -0.5108 
     45 CA        -49.3715  -24.9251   14.9411 C.3       8 UNK         0.0248 
     46 CB        -48.8102  -26.2453   14.3829 C.3       8 UNK        -0.2001 
     47 N         -49.1051  -23.8457   13.9844 N.am      8 UNK        -0.4140 
     48 C         -49.1167  -22.5328   14.2653 C.2       8 UNK         0.5028 
     49 O         -49.3610  -22.0805   15.3854 O.2       8 UNK        -0.5428 
     50 CA        -48.8294  -21.5566   13.1171 C.3       7 UNK         0.0264 
     51 CB        -47.3229  -21.2596   13.0384 C.3       7 UNK        -0.1988 
     52 N         -49.2724  -22.0964   11.8328 N.am      7 UNK        -0.4454 
     53 C         -50.3159  -21.6552   11.1141 C.2       7 UNK         0.5027 
     54 O         -51.0531  -20.7395   11.4835 O.2       7 UNK        -0.5083 
     55 CA        -50.5927  -22.3609    9.7610 C.3       6 UNK         0.0844 
     56 C56       -51.2589  -21.4250    8.7171 C.3       14 UNK        -0.0967 
     57 S57       -51.6677  -22.2894    7.1624 S.3       14 UNK        -0.2604 
     58 C58       -53.2028  -23.1598    7.6139 C.3       14 UNK         0.0134 
     59 N         -49.4202  -23.0805    9.2497 N.am      6 UNK        -0.4116 
     60 C         -48.2240  -22.5709    8.9218 C.2       5 UNK         0.5034 
     61 O         -47.9947  -21.3647    8.8247 O.2       5 UNK        -0.5045 
     62 CA        -47.0735  -23.5839    8.7309 C.3       5 UNK         0.0224 
     63 CB        -45.7600  -23.0810    9.3652 C.3       5 UNK        -0.1978 
     64 N         -47.3745  -24.9470    9.2051 N.am      5 UNK        -0.4737 
     65 C         -47.7103  -25.3358   10.4470 C.2       4 UNK         0.5027 
     66 O         -47.8404  -24.5627   11.3985 O.2       4 UNK        -0.5211 
     67 CA        -48.0495  -26.8171   10.6475 C.3       4 UNK         0.0297 
     68 CB        -49.5708  -27.0145   10.5440 C.3       4 UNK        -0.1993 
     69 N         -47.4019  -27.6776    9.6578 N.am      4 UNK        -0.4486 
     70 C         -46.3400  -28.4575    9.8936 C.2       3 UNK         0.4961 
     71 O         -45.7331  -28.4849   10.9660 O.2       3 UNK        -0.5105 
     72 CA        -45.9066  -29.3793    8.7332 C.3       3 UNK         0.0299 
     73 CB        -44.9293  -30.4878    9.1776 C.3       3 UNK        -0.1972 
     74 N         -47.0475  -29.9568    8.0077 N.am      3 UNK        -0.4305 
     75 C         -48.0546  -30.6936    8.5048 C.2       2 UNK         0.5006 
     76 O         -48.1198  -31.0639    9.6781 O.2       2 UNK        -0.5106 
     77 CA        -49.1997  -31.0423    7.5268 C.3       2 UNK         0.0296 
     78 CB        -50.3852  -31.7367    8.2253 C.3       2 UNK        -0.2002 
     79 N         -49.7020  -29.8587    6.8193 N.am      2 UNK        -0.4032 
     80 C         -49.0919  -29.2600    5.7887 C.2       1 UNK         0.5000 
     81 O         -48.0497  -29.6827    5.2792 O.2       1 UNK        -0.5238 
     82 H82       -45.9024  -25.5125    5.7814 H         1 UNK         0.0889 
     83 H83       -47.2137  -24.4101    5.3435 H         1 UNK         0.0889 
     84 H84       -46.6415  -25.6137    4.1845 H         1 UNK         0.0889 
     85 H85       -48.6489  -26.7309    3.9380 H         1 UNK         0.3028 
     86 H86       -50.3240  -27.5267    6.0658 H         1 UNK         0.0864 
     87 H87       -51.4174  -29.0271    4.3540 H         1 UNK         0.0720 
     88 H88       -50.1089  -28.7181    3.2466 H         1 UNK         0.0720 
     89 H89       -53.8723  -26.3064    3.7042 H         1 UNK         0.0814 
     90 H90       -53.5378  -27.9455    4.1880 H         1 UNK         0.0814 
     91 H91       -53.2818  -24.3769    5.1916 H         1 UNK         0.1469 
     92 H92       -52.8838  -25.2389    9.3732 H         1 UNK         0.1381 
     93 H93       -52.8864  -28.4362    6.5124 H         1 UNK         0.1206 
     94 H94       -51.8164  -28.5907    8.9556 H         1 UNK         0.0813 
     95 H95       -52.4732  -27.4726   10.1318 H         1 UNK         0.0813 
     96 H96       -53.5467  -31.2588    9.8291 H         1 UNK         0.0638 
     97 H97       -52.4720  -30.1796   10.6804 H         1 UNK         0.0638 
     98 H98       -55.4060  -30.5759   11.4151 H         1 UNK         0.0568 
     99 H99       -54.1320  -31.1306   14.3483 H         1 UNK         0.3450 
    100 H100      -53.8339  -32.8426   14.1816 H         1 UNK         0.3450 
    101 H101      -53.2490  -29.1020   12.8488 H         1 UNK         0.2987 
    102 H102      -54.4647  -26.7539   13.6288 H         1 UNK         0.0766 
    103 H103      -55.6596  -26.3160   15.7680 H         1 UNK         0.0798 
    104 H104      -56.7892  -26.7787   14.5105 H         1 UNK         0.0798 
    105 H105      -56.3328  -27.9442   15.7467 H         1 UNK         0.0798 
    106 H106      -52.8673  -27.2847   15.0837 H         1 UNK         0.3198 
    107 H107      -52.3192  -30.0046   17.3597 H         1 UNK         0.0843 
    108 H108      -50.8180  -28.6847   15.0314 H         1 UNK         0.0831 
    109 H109      -51.1277  -30.4016   15.2312 H         1 UNK         0.0831 
    110 H110      -50.0785  -29.5672   16.3647 H         1 UNK         0.0831 
    111 H111      -51.5493  -27.1715   16.9194 H         1 UNK         0.3133 
    112 H112      -53.0494  -26.0837   19.9222 H         1 UNK         0.0566 
    113 H113      -50.0404  -26.5386   19.5226 H         1 UNK         0.0814 
    114 H114      -50.9834  -27.0792   20.9038 H         1 UNK         0.0814 
    115 H115      -50.7725  -25.3612   20.6144 H         1 UNK         0.0814 
    116 H116      -51.1839  -24.9094   18.0506 H         1 UNK         0.3091 
    117 H117      -53.4576  -24.1141   15.5336 H         1 UNK         0.0702 
    118 H118      -52.9362  -21.7171   15.9206 H         1 UNK         0.0785 
    119 H119      -52.4349  -22.0644   17.5755 H         1 UNK         0.0785 
    120 H120      -54.1148  -22.2731   17.0976 H         1 UNK         0.0785 
    121 H121      -50.8319  -23.1274   15.9637 H         1 UNK         0.2998 
    122 H122      -48.8248  -24.7022   15.8597 H         1 UNK         0.0697 
    123 H123      -49.3561  -26.5734   13.4991 H         1 UNK         0.0825 
    124 H124      -48.8823  -27.0430   15.1231 H         1 UNK         0.0825 
    125 H125      -47.7580  -26.1501   14.1137 H         1 UNK         0.0825 
    126 H126      -48.8441  -24.1334   13.0470 H         1 UNK         0.3029 
    127 H127      -49.3514  -20.6231   13.3384 H         1 UNK         0.0897 
    128 H128      -47.1036  -20.5382   12.2509 H         1 UNK         0.0792 
    129 H129      -46.9580  -20.8382   13.9762 H         1 UNK         0.0792 
    130 H130      -46.7426  -22.1611   12.8360 H         1 UNK         0.0792 
    131 H131      -48.7311  -22.8776   11.4713 H         1 UNK         0.3086 
    132 H132      -51.3173  -23.1393   10.0030 H         1 UNK         0.0583 
    133 H133      -52.1710  -20.9774    9.1164 H         1 UNK         0.1020 
    134 H134      -50.5966  -20.5907    8.4796 H         1 UNK         0.1020 
    135 H135      -53.4412  -23.0006    8.6663 H         1 UNK         0.0694 
    136 H136      -54.0315  -22.7310    7.0485 H         1 UNK         0.0694 
    137 H137      -49.4918  -24.0865    9.2650 H         1 UNK         0.2989 
    138 H138      -46.9166  -23.6569    7.6547 H         1 UNK         0.1055 
    139 H139      -44.9478  -23.7909    9.2091 H         1 UNK         0.0806 
    140 H140      -45.8640  -22.9215   10.4389 H         1 UNK         0.0806 
    141 H141      -45.4470  -22.1331    8.9255 H         1 UNK         0.0806 
    142 H142      -47.3875  -25.6567    8.4750 H         1 UNK         0.3061 
    143 H143      -47.7332  -27.0939   11.6551 H         1 UNK         0.0734 
    144 H144      -50.1058  -26.3683   11.2411 H         1 UNK         0.0832 
    145 H145      -49.9376  -26.7862    9.5423 H         1 UNK         0.0832 
    146 H146      -49.8485  -28.0427   10.7771 H         1 UNK         0.0832 
    147 H147      -47.7736  -27.6487    8.7129 H         1 UNK         0.3156 
    148 H148      -45.3827  -28.7417    8.0195 H         1 UNK         0.0589 
    149 H149      -45.3738  -31.1403    9.9300 H         1 UNK         0.0808 
    150 H150      -44.6224  -31.1075    8.3352 H         1 UNK         0.0808 
    151 H151      -44.0239  -30.0612    9.6111 H         1 UNK         0.0808 
    152 H152      -47.1086  -29.7206    7.0209 H         1 UNK         0.3098 
    153 H153      -48.7913  -31.7419    6.7942 H         1 UNK         0.0720 
    154 H154      -51.1688  -31.9993    7.5143 H         1 UNK         0.0791 
    155 H155      -50.0675  -32.6617    8.7084 H         1 UNK         0.0791 
    156 H156      -50.8276  -31.1033    8.9947 H         1 UNK         0.0791 
    157 H157      -50.5431  -29.4445    7.1911 H         1 UNK         0.3028 
@<TRIPOS>BOND
     1    1    2 1    
     2    1   82 1    
     3    1   83 1    
     4    1   84 1    
     5    2    3 2    
     6    2    4 am   BACKBONE|DICT|INTERRES
     7    4    5 1    
     8    4   85 1    
     9    5    6 1    
    10    5   80 1    
    11    5   86 1    
    12    6    7 1    
    13    6   87 1    
    14    6   88 1    
    15    7    8 1    
    16    8    9 1    
    17    8   89 1    
    18    8   90 1    
    19    9   10 ar   
    20    9   14 ar   
    21   10   11 ar   
    22   10   91 1    
    23   11   12 ar   
    24   11   58 1    
    25   12   13 ar   
    26   12   92 1    
    27   13   14 ar   
    28   13   15 1    
    29   14   93 1    
    30   15   16 1    
    31   15   94 1    
    32   15   95 1    
    33   16   17 1    
    34   17   18 1    
    35   17   96 1    
    36   17   97 1    
    37   18   19 1    
    38   18   22 1    
    39   18   98 1    
    40   19   20 am   BACKBONE|DICT|INTERRES
    41   19   21 2    
    42   20   99 1    
    43   20  100 1    
    44   22   23 am   BACKBONE|DICT|INTERRES
    45   22  101 1    
    46   23   24 2    
    47   23   25 1    
    48   25   26 1    
    49   25   27 1    
    50   25  102 1    
    51   26  103 1    
    52   26  104 1    
    53   26  105 1    
    54   27   28 am   BACKBONE|DICT|INTERRES
    55   27  106 1    
    56   28   29 2    
    57   28   30 1    
    58   30   31 1    
    59   30   32 1    
    60   30  107 1    
    61   31  108 1    
    62   31  109 1    
    63   31  110 1    
    64   32   33 am   BACKBONE|DICT|INTERRES
    65   32  111 1    
    66   33   34 2    
    67   33   35 1    
    68   35   36 1    
    69   35   37 1    
    70   35  112 1    
    71   36  113 1    
    72   36  114 1    
    73   36  115 1    
    74   37   38 am   BACKBONE|DICT|INTERRES
    75   37  116 1    
    76   38   39 2    
    77   38   40 1    
    78   40   41 1    
    79   40   42 1    
    80   40  117 1    
    81   41  118 1    
    82   41  119 1    
    83   41  120 1    
    84   42   43 am   BACKBONE|DICT|INTERRES
    85   42  121 1    
    86   43   44 2    
    87   43   45 1    
    88   45   46 1    
    89   45   47 1    
    90   45  122 1    
    91   46  123 1    
    92   46  124 1    
    93   46  125 1    
    94   47   48 am   BACKBONE|DICT|INTERRES
    95   47  126 1    
    96   48   49 2    
    97   48   50 1    
    98   50   51 1    
    99   50   52 1    
   100   50  127 1    
   101   51  128 1    
   102   51  129 1    
   103   51  130 1    
   104   52   53 am   BACKBONE|DICT|INTERRES
   105   52  131 1    
   106   53   54 2    
   107   53   55 1    
   108   55   56 1    
   109   55   59 1    
   110   55  132 1    
   111   56   57 1    
   112   56  133 1    
   113   56  134 1    
   114   57   58 1    
   115   58  135 1    
   116   58  136 1    
   117   59   60 am   BACKBONE|DICT|INTERRES
   118   59  137 1    
   119   60   61 2    
   120   60   62 1    
   121   62   63 1    
   122   62   64 1    
   123   62  138 1    
   124   63  139 1    
   125   63  140 1    
   126   63  141 1    
   127   64   65 am   BACKBONE|DICT|INTERRES
   128   64  142 1    
   129   65   66 2    
   130   65   67 1    
   131   67   68 1    
   132   67   69 1    
   133   67  143 1    
   134   68  144 1    
   135   68  145 1    
   136   68  146 1    
   137   69   70 am   BACKBONE|DICT|INTERRES
   138   69  147 1    
   139   70   71 2    
   140   70   72 1    
   141   72   73 1    
   142   72   74 1    
   143   72  148 1    
   144   73  149 1    
   145   73  150 1    
   146   73  151 1    
   147   74   75 am   BACKBONE|DICT|INTERRES
   148   74  152 1    
   149   75   76 2    
   150   75   77 1    
   151   77   78 1    
   152   77   79 1    
   153   77  153 1    
   154   78  154 1    
   155   78  155 1    
   156   78  156 1    
   157   79   80 am   BACKBONE|DICT|INTERRES
   158   79  157 1    
   159   80   81 2    
@<TRIPOS>SUBSTRUCTURE
     1 UNK         1 GROUP             0       ****    0 ROOT    
