@<TRIPOS>MOLECULE
3R207
157   159    1
SMALL
USER_CHARGES


@<TRIPOS>ATOM
      1 CA        -46.7082  -27.5700   11.2679 C.3       0 UNK        -0.1975 
      2 C         -47.1934  -28.2516    9.9971 C.2       0 UNK         0.4852 
      3 O         -46.9782  -29.4530    9.8303 O.2       0 UNK        -0.5216 
      4 N         -47.8384  -27.4874    9.1100 N.am      1 UNK        -0.4461 
      5 CA        -48.3843  -27.9344    7.8283 C.3       1 UNK         0.0864 
      6 C6        -49.9159  -27.6859    7.7441 C.3       14 UNK        -0.0898 
      7 S7        -50.8154  -28.7320    8.9371 S.3       14 UNK        -0.2598 
      8 C8        -52.4967  -28.7191    8.2442 C.3       14 UNK         0.0286 
      9 C9        -53.2795  -27.5075    8.7223 C.ar      14 UNK        -0.0844 
     10 C10       -53.3495  -26.3469    7.9468 C.ar      14 UNK        -0.0881 
     11 C11       -54.0755  -25.2394    8.3966 C.ar      14 UNK        -0.0643 
     12 C12       -54.7435  -25.3049    9.6250 C.ar      14 UNK        -0.0930 
     13 C13       -54.6805  -26.4616   10.4074 C.ar      14 UNK        -0.0827 
     14 C14       -53.9431  -27.5556    9.9502 C.ar      14 UNK        -0.1249 
     15 C15       -55.3797  -26.5169   11.7584 C.3       14 UNK         0.0141 
     16 S16       -57.1247  -27.0156   11.6328 S.3       14 UNK        -0.2313 
     17 C17       -57.0084  -28.8102   11.3239 C.3       14 UNK        -0.0915 
     18 CA        -57.3385  -29.6655   12.5748 C.3       13 UNK         0.0968 
     19 C         -57.4939  -31.1594   12.1770 C.2       13 UNK         0.5732 
     20 N         -58.7195  -31.6300   11.9894 N.am      13 UNK        -0.7310 
     21 O         -56.5142  -31.8775   11.9887 O.2       13 UNK        -0.5035 
     22 N         -56.3510  -29.4694   13.6492 N.am      13 UNK        -0.4233 
     23 C         -56.4674  -29.9522   14.8937 C.2       13 UNK         0.4989 
     24 O         -57.4612  -30.5645   15.2899 O.2       13 UNK        -0.4996 
     25 CA        -55.3138  -29.6745   15.8829 C.3       12 UNK         0.0216 
     26 CB        -55.1571  -30.7929   16.9361 C.3       12 UNK        -0.1964 
     27 N         -54.0145  -29.3606   15.2696 N.am      12 UNK        -0.4276 
     28 C         -53.2648  -30.1575   14.4916 C.2       12 UNK         0.5020 
     29 O         -53.6157  -31.2736   14.1096 O.2       12 UNK        -0.5489 
     30 CA        -51.8803  -29.6324   14.0718 C.3       11 UNK         0.0294 
     31 CB        -51.9664  -28.8155   12.7741 C.3       11 UNK        -0.2019 
     32 N         -51.2129  -28.8351   15.1023 N.am      11 UNK        -0.4493 
     33 C         -50.6972  -29.3339   16.2352 C.2       11 UNK         0.4932 
     34 O         -50.7774  -30.5172   16.5656 O.2       11 UNK        -0.5029 
     35 CA        -49.9506  -28.3499   17.1467 C.3       10 UNK         0.0280 
     36 CB        -48.5480  -28.0532   16.5885 C.3       10 UNK        -0.1976 
     37 N         -50.6945  -27.0991   17.2860 N.am      10 UNK        -0.4242 
     38 C         -51.5284  -26.8175   18.2968 C.2       10 UNK         0.5072 
     39 O         -51.7101  -27.5587   19.2639 O.2       10 UNK        -0.5224 
     40 CA        -52.2949  -25.4817   18.2314 C.3       9 UNK         0.0343 
     41 CB        -51.5629  -24.4026   19.0457 C.3       9 UNK        -0.2003 
     42 N         -52.5162  -24.9883   16.8696 N.am      9 UNK        -0.4272 
     43 C         -53.2793  -25.5995   15.9535 C.2       9 UNK         0.4988 
     44 O         -53.9030  -26.6395   16.1595 O.2       9 UNK        -0.5108 
     45 CA        -53.3140  -24.9801   14.5486 C.3       8 UNK         0.0248 
     46 CB        -54.4193  -23.9168   14.4549 C.3       8 UNK        -0.2001 
     47 N         -52.0458  -24.4076   14.0875 N.am      8 UNK        -0.4140 
     48 C         -50.8607  -25.0307   14.0505 C.2       8 UNK         0.5028 
     49 O         -50.6639  -26.1523   14.5223 O.2       8 UNK        -0.5428 
     50 CA        -49.7207  -24.2806   13.3383 C.3       7 UNK         0.0264 
     51 CB        -48.3551  -24.9590   13.5502 C.3       7 UNK        -0.1988 
     52 N         -49.9775  -24.1765   11.9003 N.am      7 UNK        -0.4454 
     53 C         -50.8692  -23.3653   11.3168 C.2       7 UNK         0.5027 
     54 O         -51.5532  -22.5523   11.9437 O.2       7 UNK        -0.5083 
     55 CA        -51.0007  -23.4743    9.7829 C.3       6 UNK         0.0844 
     56 C56       -52.2457  -22.7206    9.2471 C.3       14 UNK        -0.0967 
     57 S57       -52.5506  -23.0917    7.4856 S.3       14 UNK        -0.2604 
     58 C58       -54.1445  -23.9742    7.5521 C.3       14 UNK         0.0134 
     59 N         -49.7763  -23.0002    9.1325 N.am      6 UNK        -0.4116 
     60 C         -48.6157  -23.6610    9.0547 C.2       5 UNK         0.5034 
     61 O         -48.4500  -24.7992    9.5008 O.2       5 UNK        -0.5045 
     62 CA        -47.4745  -22.9070    8.3511 C.3       5 UNK         0.0224 
     63 CB        -47.1085  -21.5999    9.0888 C.3       5 UNK        -0.1978 
     64 N         -46.2816  -23.7272    8.1070 N.am      5 UNK        -0.4737 
     65 C         -45.3868  -24.2023    8.9892 C.2       4 UNK         0.5027 
     66 O         -45.4550  -24.0210   10.2052 O.2       4 UNK        -0.5211 
     67 CA        -44.1872  -24.9926    8.4239 C.3       4 UNK         0.0297 
     68 CB        -44.0111  -26.3513    9.1214 C.3       4 UNK        -0.1993 
     69 N         -44.2782  -25.2052    6.9761 N.am      4 UNK        -0.4486 
     70 C         -43.7955  -24.3610    6.0524 C.2       3 UNK         0.4961 
     71 O         -43.1427  -23.3532    6.3250 O.2       3 UNK        -0.5105 
     72 CA        -44.1048  -24.6657    4.5736 C.3       3 UNK         0.0299 
     73 CB        -42.8988  -25.3436    3.9034 C.3       3 UNK        -0.1972 
     74 N         -45.2977  -25.4910    4.3617 N.am      3 UNK        -0.4305 
     75 C         -46.5527  -25.1501    4.6876 C.2       2 UNK         0.5006 
     76 O         -46.8555  -24.0763    5.2084 O.2       2 UNK        -0.5106 
     77 CA        -47.6583  -26.1918    4.4266 C.3       2 UNK         0.0296 
     78 CB        -47.2235  -27.3497    3.4982 C.3       2 UNK        -0.2002 
     79 N         -48.2253  -26.7326    5.6696 N.am      2 UNK        -0.4032 
     80 C         -47.5575  -27.2931    6.6923 C.2       1 UNK         0.5000 
     81 O         -46.3252  -27.3502    6.7438 O.2       1 UNK        -0.5238 
     82 H82       -47.2789  -27.9275   12.1244 H         1 UNK         0.0889 
     83 H83       -46.8121  -26.4860   11.2105 H         1 UNK         0.0889 
     84 H84       -45.6568  -27.7979   11.4402 H         1 UNK         0.0889 
     85 H85       -47.9699  -26.4944    9.3028 H         1 UNK         0.3028 
     86 H86       -48.2239  -29.0081    7.7116 H         1 UNK         0.0864 
     87 H87       -50.2954  -27.9302    6.7509 H         1 UNK         0.0720 
     88 H88       -50.1592  -26.6386    7.9352 H         1 UNK         0.0720 
     89 H89       -52.4637  -28.7569    7.1545 H         1 UNK         0.0814 
     90 H90       -53.0090  -29.6296    8.5591 H         1 UNK         0.0814 
     91 H91       -52.8339  -26.2993    6.9975 H         1 UNK         0.1469 
     92 H92       -55.3106  -24.4537    9.9765 H         1 UNK         0.1381 
     93 H93       -53.8820  -28.4518   10.5489 H         1 UNK         0.1206 
     94 H94       -54.8562  -27.1915   12.4350 H         1 UNK         0.0813 
     95 H95       -55.3436  -25.5308   12.2208 H         1 UNK         0.0813 
     96 H96       -57.7141  -29.0305   10.5206 H         1 UNK         0.0638 
     97 H97       -56.0262  -29.0698   10.9321 H         1 UNK         0.0638 
     98 H98       -58.2996  -29.3251   12.9657 H         1 UNK         0.0568 
     99 H99       -59.5298  -31.0466   12.1289 H         1 UNK         0.3450 
    100 H100      -58.8371  -32.5923   11.7135 H         1 UNK         0.3450 
    101 H101      -55.4938  -29.0081   13.3936 H         1 UNK         0.2987 
    102 H102      -55.6081  -28.7706   16.4181 H         1 UNK         0.0766 
    103 H103      -54.3600  -30.5618   17.6430 H         1 UNK         0.0798 
    104 H104      -56.0724  -30.9217   17.5150 H         1 UNK         0.0798 
    105 H105      -54.9269  -31.7531   16.4735 H         1 UNK         0.0798 
    106 H106      -53.6533  -28.4416   15.5156 H         1 UNK         0.3198 
    107 H107      -51.2520  -30.5037   13.8728 H         1 UNK         0.0843 
    108 H108      -52.3987  -29.4150   11.9729 H         1 UNK         0.0831 
    109 H109      -50.9788  -28.4988   12.4373 H         1 UNK         0.0831 
    110 H110      -52.5769  -27.9209   12.8941 H         1 UNK         0.0831 
    111 H111      -51.0570  -27.8496   14.8895 H         1 UNK         0.3133 
    112 H112      -49.8262  -28.8217   18.1238 H         1 UNK         0.0566 
    113 H113      -48.5895  -27.5828   15.6053 H         1 UNK         0.0814 
    114 H114      -47.9680  -28.9713   16.4858 H         1 UNK         0.0814 
    115 H115      -47.9912  -27.3910   17.2515 H         1 UNK         0.0814 
    116 H116      -50.6501  -26.4634   16.4962 H         1 UNK         0.3091 
    117 H117      -53.2738  -25.6474   18.6866 H         1 UNK         0.0702 
    118 H118      -52.1364  -23.4762   19.0843 H         1 UNK         0.0785 
    119 H119      -50.5822  -24.1753   18.6256 H         1 UNK         0.0785 
    120 H120      -51.4085  -24.7286   20.0754 H         1 UNK         0.0785 
    121 H121      -52.0339  -24.1419   16.6042 H         1 UNK         0.2998 
    122 H122      -53.5534  -25.7873   13.8571 H         1 UNK         0.0697 
    123 H123      -54.2231  -23.0721   15.1166 H         1 UNK         0.0825 
    124 H124      -55.3878  -24.3334   14.7357 H         1 UNK         0.0825 
    125 H125      -54.5158  -23.5291   13.4405 H         1 UNK         0.0825 
    126 H126      -52.0999  -23.5116   13.6125 H         1 UNK         0.3029 
    127 H127      -49.6672  -23.2748   13.7606 H         1 UNK         0.0897 
    128 H128      -47.5557  -24.4143   13.0468 H         1 UNK         0.0792 
    129 H129      -48.1021  -25.0031   14.6103 H         1 UNK         0.0792 
    130 H130      -48.3535  -25.9819   13.1741 H         1 UNK         0.0792 
    131 H131      -49.4289  -24.7756   11.2923 H         1 UNK         0.3086 
    132 H132      -51.1292  -24.5351    9.5535 H         1 UNK         0.0583 
    133 H133      -53.1332  -22.9764    9.8278 H         1 UNK         0.1020 
    134 H134      -52.1237  -21.6418    9.3606 H         1 UNK         0.1020 
    135 H135      -54.9114  -23.2959    7.9295 H         1 UNK         0.0694 
    136 H136      -54.4440  -24.2373    6.5366 H         1 UNK         0.0694 
    137 H137      -49.8293  -22.0728    8.7383 H         1 UNK         0.2989 
    138 H138      -47.8469  -22.6395    7.3606 H         1 UNK         0.1055 
    139 H139      -47.9398  -20.8945    9.0882 H         1 UNK         0.0806 
    140 H140      -46.2666  -21.0984    8.6112 H         1 UNK         0.0806 
    141 H141      -46.8419  -21.7809   10.1307 H         1 UNK         0.0806 
    142 H142      -46.1446  -23.9674    7.1308 H         1 UNK         0.3061 
    143 H143      -43.2981  -24.3989    8.6465 H         1 UNK         0.0734 
    144 H144      -43.9470  -26.2360   10.2041 H         1 UNK         0.0832 
    145 H145      -44.8410  -27.0223    8.9095 H         1 UNK         0.0832 
    146 H146      -43.0953  -26.8447    8.7959 H         1 UNK         0.0832 
    147 H147      -44.8411  -25.9986    6.6784 H         1 UNK         0.3156 
    148 H148      -44.2773  -23.7088    4.0764 H         1 UNK         0.0589 
    149 H149      -42.6898  -26.3205    4.3416 H         1 UNK         0.0808 
    150 H150      -43.0624  -25.4812    2.8344 H         1 UNK         0.0808 
    151 H151      -41.9983  -24.7377    4.0150 H         1 UNK         0.0808 
    152 H152      -45.1472  -26.4086    3.9676 H         1 UNK         0.3098 
    153 H153      -48.4642  -25.6538    3.9249 H         1 UNK         0.0720 
    154 H154      -48.0715  -27.9903    3.2552 H         1 UNK         0.0791 
    155 H155      -46.8313  -26.9746    2.5517 H         1 UNK         0.0791 
    156 H156      -46.4596  -27.9823    3.9524 H         1 UNK         0.0791 
    157 H157      -49.2322  -26.6909    5.7331 H         1 UNK         0.3028 
@<TRIPOS>BOND
     1    1    2 1    
     2    1   82 1    
     3    1   83 1    
     4    1   84 1    
     5    2    3 2    
     6    2    4 am   BACKBONE|DICT|INTERRES
     7    4    5 1    
     8    4   85 1    
     9    5    6 1    
    10    5   80 1    
    11    5   86 1    
    12    6    7 1    
    13    6   87 1    
    14    6   88 1    
    15    7    8 1    
    16    8    9 1    
    17    8   89 1    
    18    8   90 1    
    19    9   10 ar   
    20    9   14 ar   
    21   10   11 ar   
    22   10   91 1    
    23   11   12 ar   
    24   11   58 1    
    25   12   13 ar   
    26   12   92 1    
    27   13   14 ar   
    28   13   15 1    
    29   14   93 1    
    30   15   16 1    
    31   15   94 1    
    32   15   95 1    
    33   16   17 1    
    34   17   18 1    
    35   17   96 1    
    36   17   97 1    
    37   18   19 1    
    38   18   22 1    
    39   18   98 1    
    40   19   20 am   BACKBONE|DICT|INTERRES
    41   19   21 2    
    42   20   99 1    
    43   20  100 1    
    44   22   23 am   BACKBONE|DICT|INTERRES
    45   22  101 1    
    46   23   24 2    
    47   23   25 1    
    48   25   26 1    
    49   25   27 1    
    50   25  102 1    
    51   26  103 1    
    52   26  104 1    
    53   26  105 1    
    54   27   28 am   BACKBONE|DICT|INTERRES
    55   27  106 1    
    56   28   29 2    
    57   28   30 1    
    58   30   31 1    
    59   30   32 1    
    60   30  107 1    
    61   31  108 1    
    62   31  109 1    
    63   31  110 1    
    64   32   33 am   BACKBONE|DICT|INTERRES
    65   32  111 1    
    66   33   34 2    
    67   33   35 1    
    68   35   36 1    
    69   35   37 1    
    70   35  112 1    
    71   36  113 1    
    72   36  114 1    
    73   36  115 1    
    74   37   38 am   BACKBONE|DICT|INTERRES
    75   37  116 1    
    76   38   39 2    
    77   38   40 1    
    78   40   41 1    
    79   40   42 1    
    80   40  117 1    
    81   41  118 1    
    82   41  119 1    
    83   41  120 1    
    84   42   43 am   BACKBONE|DICT|INTERRES
    85   42  121 1    
    86   43   44 2    
    87   43   45 1    
    88   45   46 1    
    89   45   47 1    
    90   45  122 1    
    91   46  123 1    
    92   46  124 1    
    93   46  125 1    
    94   47   48 am   BACKBONE|DICT|INTERRES
    95   47  126 1    
    96   48   49 2    
    97   48   50 1    
    98   50   51 1    
    99   50   52 1    
   100   50  127 1    
   101   51  128 1    
   102   51  129 1    
   103   51  130 1    
   104   52   53 am   BACKBONE|DICT|INTERRES
   105   52  131 1    
   106   53   54 2    
   107   53   55 1    
   108   55   56 1    
   109   55   59 1    
   110   55  132 1    
   111   56   57 1    
   112   56  133 1    
   113   56  134 1    
   114   57   58 1    
   115   58  135 1    
   116   58  136 1    
   117   59   60 am   BACKBONE|DICT|INTERRES
   118   59  137 1    
   119   60   61 2    
   120   60   62 1    
   121   62   63 1    
   122   62   64 1    
   123   62  138 1    
   124   63  139 1    
   125   63  140 1    
   126   63  141 1    
   127   64   65 am   BACKBONE|DICT|INTERRES
   128   64  142 1    
   129   65   66 2    
   130   65   67 1    
   131   67   68 1    
   132   67   69 1    
   133   67  143 1    
   134   68  144 1    
   135   68  145 1    
   136   68  146 1    
   137   69   70 am   BACKBONE|DICT|INTERRES
   138   69  147 1    
   139   70   71 2    
   140   70   72 1    
   141   72   73 1    
   142   72   74 1    
   143   72  148 1    
   144   73  149 1    
   145   73  150 1    
   146   73  151 1    
   147   74   75 am   BACKBONE|DICT|INTERRES
   148   74  152 1    
   149   75   76 2    
   150   75   77 1    
   151   77   78 1    
   152   77   79 1    
   153   77  153 1    
   154   78  154 1    
   155   78  155 1    
   156   78  156 1    
   157   79   80 am   BACKBONE|DICT|INTERRES
   158   79  157 1    
   159   80   81 2    
@<TRIPOS>SUBSTRUCTURE
     1 UNK         1 GROUP             0       ****    0 ROOT    
