@<TRIPOS>MOLECULE
3R207
157   159    1
SMALL
USER_CHARGES


@<TRIPOS>ATOM
      1 CA        -50.0017  -28.7903    9.6479 C.3       0 UNK        -0.1975 
      2 C         -49.4376  -29.4526    8.4043 C.2       0 UNK         0.4852 
      3 O         -48.4452  -30.1753    8.4925 O.2       0 UNK        -0.5216 
      4 N         -50.0614  -29.2130    7.2444 N.am      1 UNK        -0.4461 
      5 CA        -49.6540  -29.7844    5.9550 C.3       1 UNK         0.0864 
      6 C6        -50.8713  -29.9946    5.0214 C.3       14 UNK        -0.0898 
      7 S7        -51.7021  -28.4590    4.4831 S.3       14 UNK        -0.2598 
      8 C8        -53.1795  -28.3949    5.5539 C.3       14 UNK         0.0286 
      9 C9        -53.0238  -27.4645    6.7540 C.ar      14 UNK        -0.0844 
     10 C10       -52.5031  -26.1755    6.5918 C.ar      14 UNK        -0.0881 
     11 C11       -52.4564  -25.2729    7.6581 C.ar      14 UNK        -0.0643 
     12 C12       -52.9436  -25.6792    8.9079 C.ar      14 UNK        -0.0930 
     13 C13       -53.4776  -26.9597    9.0854 C.ar      14 UNK        -0.0827 
     14 C14       -53.5019  -27.8527    8.0097 C.ar      14 UNK        -0.1249 
     15 C15       -54.0912  -27.3481   10.4231 C.3       14 UNK         0.0141 
     16 S16       -52.9069  -28.2442   11.4713 S.3       14 UNK        -0.2313 
     17 C17       -53.6129  -29.9263   11.5447 C.3       14 UNK        -0.0915 
     18 CA        -53.7129  -30.5053   12.9860 C.3       13 UNK         0.0968 
     19 C         -52.3685  -30.9980   13.5906 C.2       13 UNK         0.5732 
     20 N         -52.2102  -31.0017   14.9097 N.am      13 UNK        -0.7310 
     21 O         -51.4676  -31.4154   12.8671 O.2       13 UNK        -0.5035 
     22 N         -54.4649  -29.6339   13.9028 N.am      13 UNK        -0.4233 
     23 C         -55.7798  -29.7190   14.1318 C.2       13 UNK         0.4989 
     24 O         -56.5203  -30.5082   13.5413 O.2       13 UNK        -0.4996 
     25 CA        -56.3801  -28.7662   15.1885 C.3       12 UNK         0.0216 
     26 CB        -57.6912  -29.3083   15.7972 C.3       12 UNK        -0.1964 
     27 N         -55.4532  -28.3671   16.2567 N.am      12 UNK        -0.4276 
     28 C         -54.7908  -29.1609   17.1157 C.2       12 UNK         0.5020 
     29 O         -54.8534  -30.3909   17.0905 O.2       12 UNK        -0.5489 
     30 CA        -53.8857  -28.4781   18.1622 C.3       11 UNK         0.0294 
     31 CB        -52.5577  -29.2366   18.3433 C.3       11 UNK        -0.2019 
     32 N         -53.5826  -27.0988   17.7808 N.am      11 UNK        -0.4493 
     33 C         -54.0260  -25.9933   18.3951 C.2       11 UNK         0.4932 
     34 O         -54.6843  -26.0050   19.4351 O.2       11 UNK        -0.5029 
     35 CA        -53.7066  -24.6396   17.7253 C.3       10 UNK         0.0280 
     36 CB        -52.4975  -23.9791   18.4058 C.3       10 UNK        -0.1976 
     37 N         -53.4501  -24.7385   16.2840 N.am      10 UNK        -0.4242 
     38 C         -54.3400  -25.1641   15.3723 C.2       10 UNK         0.5072 
     39 O         -55.5123  -25.4289   15.6384 O.2       10 UNK        -0.5224 
     40 CA        -53.8222  -25.4313   13.9469 C.3       9 UNK         0.0343 
     41 CB        -54.0870  -24.2124   13.0506 C.3       9 UNK        -0.2003 
     42 N         -52.3980  -25.7820   13.9017 N.am      9 UNK        -0.4272 
     43 C         -51.8397  -26.8196   14.5494 C.2       9 UNK         0.4988 
     44 O         -52.5058  -27.6670   15.1461 O.2       9 UNK        -0.5108 
     45 CA        -50.3012  -26.9192   14.6033 C.3       8 UNK         0.0248 
     46 CB        -49.8107  -28.1501   13.8273 C.3       8 UNK        -0.2001 
     47 N         -49.5950  -25.7313   14.1163 N.am      8 UNK        -0.4140 
     48 C         -49.6652  -24.5022   14.6531 C.2       8 UNK         0.5028 
     49 O         -50.2752  -24.2504   15.6938 O.2       8 UNK        -0.5428 
     50 CA        -49.0163  -23.3452   13.8622 C.3       7 UNK         0.0264 
     51 CB        -47.6242  -23.0247   14.4282 C.3       7 UNK        -0.1988 
     52 N         -48.9035  -23.5883   12.4171 N.am      7 UNK        -0.4454 
     53 C         -49.9201  -23.9104   11.6000 C.2       7 UNK         0.5027 
     54 O         -51.0926  -23.9349   11.9731 O.2       7 UNK        -0.5083 
     55 CA        -49.5776  -24.3594   10.1589 C.3       6 UNK         0.0844 
     56 C56       -49.8167  -23.2296    9.1279 C.3       14 UNK        -0.0967 
     57 S57       -51.5725  -22.8293    8.8384 S.3       14 UNK        -0.2604 
     58 C58       -51.9642  -23.8507    7.3751 C.3       14 UNK         0.0134 
     59 N         -48.2297  -24.9184    9.9895 N.am      6 UNK        -0.4116 
     60 C         -47.6408  -25.8910   10.7002 C.2       5 UNK         0.5034 
     61 O         -48.1504  -26.4280   11.6824 O.2       5 UNK        -0.5045 
     62 CA        -46.2380  -26.3375   10.2541 C.3       5 UNK         0.0224 
     63 CB        -46.2993  -27.7159    9.5798 C.3       5 UNK        -0.1978 
     64 N         -45.5946  -25.3910    9.3387 N.am      5 UNK        -0.4737 
     65 C         -44.9602  -24.2739    9.7188 C.2       4 UNK         0.5027 
     66 O         -44.8475  -23.9176   10.8913 O.2       4 UNK        -0.5211 
     67 CA        -44.3579  -23.4073    8.5990 C.3       4 UNK         0.0297 
     68 CB        -42.9135  -23.8419    8.3035 C.3       4 UNK        -0.1993 
     69 N         -45.1435  -23.4542    7.3617 N.am      4 UNK        -0.4486 
     70 C         -46.3293  -22.8503    7.2006 C.2       3 UNK         0.4961 
     71 O         -46.8664  -22.1558    8.0626 O.2       3 UNK        -0.5105 
     72 CA        -47.0559  -23.0909    5.8654 C.3       3 UNK         0.0299 
     73 CB        -46.5700  -22.0959    4.7994 C.3       3 UNK        -0.1972 
     74 N         -46.9210  -24.4624    5.3593 N.am      3 UNK        -0.4305 
     75 C         -47.3794  -25.5518    5.9895 C.2       2 UNK         0.5006 
     76 O         -47.9313  -25.5274    7.0923 O.2       2 UNK        -0.5106 
     77 CA        -47.1523  -26.8982    5.2970 C.3       2 UNK         0.0296 
     78 CB        -45.7276  -27.4199    5.5684 C.3       2 UNK        -0.2002 
     79 N         -48.1498  -27.8306    5.8109 N.am      2 UNK        -0.4032 
     80 C         -48.5064  -29.0026    5.2715 C.2       1 UNK         0.5000 
     81 O         -47.9734  -29.4761    4.2654 O.2       1 UNK        -0.5238 
     82 H82       -50.5918  -29.5121   10.2108 H         1 UNK         0.0889 
     83 H83       -50.6334  -27.9362    9.4038 H         1 UNK         0.0889 
     84 H84       -49.1980  -28.4431   10.2933 H         1 UNK         0.0889 
     85 H85       -50.8766  -28.6139    7.2199 H         1 UNK         0.3028 
     86 H86       -49.2457  -30.7793    6.1475 H         1 UNK         0.0864 
     87 H87       -50.5585  -30.5301    4.1230 H         1 UNK         0.0720 
     88 H88       -51.5932  -30.6544    5.5042 H         1 UNK         0.0720 
     89 H89       -53.4608  -29.4001    5.8704 H         1 UNK         0.0814 
     90 H90       -54.0141  -28.0281    4.9550 H         1 UNK         0.0814 
     91 H91       -52.1667  -25.8566    5.6144 H         1 UNK         0.1469 
     92 H92       -52.9460  -24.9927    9.7424 H         1 UNK         0.1381 
     93 H93       -53.9347  -28.8349    8.1441 H         1 UNK         0.1206 
     94 H94       -54.9975  -27.9307   10.2582 H         1 UNK         0.0813 
     95 H95       -54.4155  -26.4553   10.9574 H         1 UNK         0.0813 
     96 H96       -54.6100  -29.9245   11.1051 H         1 UNK         0.0638 
     97 H97       -53.0191  -30.5773   10.9011 H         1 UNK         0.0638 
     98 H98       -54.2680  -31.4400   12.8898 H         1 UNK         0.0568 
     99 H99       -51.3440  -31.3375   15.2977 H         1 UNK         0.3450 
    100 H100      -52.9636  -30.7206   15.5190 H         1 UNK         0.3450 
    101 H101      -53.9028  -28.9614   14.4159 H         1 UNK         0.2987 
    102 H102      -56.6251  -27.8500   14.6495 H         1 UNK         0.0766 
    103 H103      -57.5341  -30.2576   16.3106 H         1 UNK         0.0798 
    104 H104      -58.1158  -28.6055   16.5141 H         1 UNK         0.0798 
    105 H105      -58.4453  -29.4749   15.0270 H         1 UNK         0.0798 
    106 H106      -55.3276  -27.3644   16.3480 H         1 UNK         0.3198 
    107 H107      -54.4266  -28.5025   19.1103 H         1 UNK         0.0843 
    108 H108      -52.7293  -30.2623   18.6723 H         1 UNK         0.0831 
    109 H109      -51.9301  -28.7593   19.0960 H         1 UNK         0.0831 
    110 H110      -51.9891  -29.2807   17.4135 H         1 UNK         0.0831 
    111 H111      -53.0696  -27.0062   16.9088 H         1 UNK         0.3133 
    112 H112      -54.5750  -23.9924   17.8636 H         1 UNK         0.0566 
    113 H113      -52.3040  -22.9872   17.9970 H         1 UNK         0.0814 
    114 H114      -52.6672  -23.8601   19.4769 H         1 UNK         0.0814 
    115 H115      -51.5912  -24.5737   18.2822 H         1 UNK         0.0814 
    116 H116      -52.5002  -24.5524   15.9809 H         1 UNK         0.3091 
    117 H117      -54.3805  -26.2810   13.5492 H         1 UNK         0.0702 
    118 H118      -53.7902  -24.4025   12.0198 H         1 UNK         0.0785 
    119 H119      -53.5397  -23.3339   13.3951 H         1 UNK         0.0785 
    120 H120      -55.1472  -23.9561   13.0403 H         1 UNK         0.0785 
    121 H121      -51.7999  -25.1496   13.3780 H         1 UNK         0.2998 
    122 H122      -50.0298  -27.0500   15.6525 H         1 UNK         0.0697 
    123 H123      -50.1000  -28.1059   12.7767 H         1 UNK         0.0825 
    124 H124      -50.2299  -29.0649   14.2443 H         1 UNK         0.0825 
    125 H125      -48.7257  -28.2453   13.8720 H         1 UNK         0.0825 
    126 H126      -49.0731  -25.8538   13.2514 H         1 UNK         0.3029 
    127 H127      -49.6544  -22.4692   13.9957 H         1 UNK         0.0897 
    128 H128      -47.1932  -22.1445   13.9505 H         1 UNK         0.0792 
    129 H129      -47.6762  -22.8173   15.4982 H         1 UNK         0.0792 
    130 H130      -46.9316  -23.8561   14.2900 H         1 UNK         0.0792 
    131 H131      -47.9688  -23.6042   12.0346 H         1 UNK         0.3086 
    132 H132      -50.2563  -25.1811    9.9233 H         1 UNK         0.0583 
    133 H133      -49.2992  -22.3177    9.4326 H         1 UNK         0.1020 
    134 H134      -49.3745  -23.4998    8.1687 H         1 UNK         0.1020 
    135 H135      -52.7497  -23.3371    6.8195 H         1 UNK         0.0694 
    136 H136      -51.0990  -23.8825    6.7110 H         1 UNK         0.0694 
    137 H137      -47.7337  -24.6029    9.1668 H         1 UNK         0.2989 
    138 H138      -45.6271  -26.4268   11.1555 H         1 UNK         0.1055 
    139 H139      -45.3072  -28.0638    9.2920 H         1 UNK         0.0806 
    140 H140      -46.9231  -27.6999    8.6860 H         1 UNK         0.0806 
    141 H141      -46.7167  -28.4637   10.2555 H         1 UNK         0.0806 
    142 H142      -45.6703  -25.5895    8.3520 H         1 UNK         0.3061 
    143 H143      -44.3364  -22.3746    8.9548 H         1 UNK         0.0734 
    144 H144      -42.3008  -23.7933    9.2049 H         1 UNK         0.0832 
    145 H145      -42.8647  -24.8665    7.9325 H         1 UNK         0.0832 
    146 H146      -42.4468  -23.1926    7.5624 H         1 UNK         0.0832 
    147 H147      -44.7678  -23.9925    6.5945 H         1 UNK         0.3156 
    148 H148      -48.1192  -22.9084    6.0351 H         1 UNK         0.0589 
    149 H149      -45.5179  -22.2451    4.5533 H         1 UNK         0.0808 
    150 H150      -47.1470  -22.1866    3.8789 H         1 UNK         0.0808 
    151 H151      -46.6802  -21.0677    5.1472 H         1 UNK         0.0808 
    152 H152      -46.4733  -24.5722    4.4601 H         1 UNK         0.3098 
    153 H153      -47.3059  -26.7725    4.2233 H         1 UNK         0.0720 
    154 H154      -45.5463  -28.3662    5.0587 H         1 UNK         0.0791 
    155 H155      -45.5497  -27.5782    6.6321 H         1 UNK         0.0791 
    156 H156      -44.9747  -26.7166    5.2109 H         1 UNK         0.0791 
    157 H157      -48.6473  -27.4875    6.6235 H         1 UNK         0.3028 
@<TRIPOS>BOND
     1    1    2 1    
     2    1   82 1    
     3    1   83 1    
     4    1   84 1    
     5    2    3 2    
     6    2    4 am   BACKBONE|DICT|INTERRES
     7    4    5 1    
     8    4   85 1    
     9    5    6 1    
    10    5   80 1    
    11    5   86 1    
    12    6    7 1    
    13    6   87 1    
    14    6   88 1    
    15    7    8 1    
    16    8    9 1    
    17    8   89 1    
    18    8   90 1    
    19    9   10 ar   
    20    9   14 ar   
    21   10   11 ar   
    22   10   91 1    
    23   11   12 ar   
    24   11   58 1    
    25   12   13 ar   
    26   12   92 1    
    27   13   14 ar   
    28   13   15 1    
    29   14   93 1    
    30   15   16 1    
    31   15   94 1    
    32   15   95 1    
    33   16   17 1    
    34   17   18 1    
    35   17   96 1    
    36   17   97 1    
    37   18   19 1    
    38   18   22 1    
    39   18   98 1    
    40   19   20 am   BACKBONE|DICT|INTERRES
    41   19   21 2    
    42   20   99 1    
    43   20  100 1    
    44   22   23 am   BACKBONE|DICT|INTERRES
    45   22  101 1    
    46   23   24 2    
    47   23   25 1    
    48   25   26 1    
    49   25   27 1    
    50   25  102 1    
    51   26  103 1    
    52   26  104 1    
    53   26  105 1    
    54   27   28 am   BACKBONE|DICT|INTERRES
    55   27  106 1    
    56   28   29 2    
    57   28   30 1    
    58   30   31 1    
    59   30   32 1    
    60   30  107 1    
    61   31  108 1    
    62   31  109 1    
    63   31  110 1    
    64   32   33 am   BACKBONE|DICT|INTERRES
    65   32  111 1    
    66   33   34 2    
    67   33   35 1    
    68   35   36 1    
    69   35   37 1    
    70   35  112 1    
    71   36  113 1    
    72   36  114 1    
    73   36  115 1    
    74   37   38 am   BACKBONE|DICT|INTERRES
    75   37  116 1    
    76   38   39 2    
    77   38   40 1    
    78   40   41 1    
    79   40   42 1    
    80   40  117 1    
    81   41  118 1    
    82   41  119 1    
    83   41  120 1    
    84   42   43 am   BACKBONE|DICT|INTERRES
    85   42  121 1    
    86   43   44 2    
    87   43   45 1    
    88   45   46 1    
    89   45   47 1    
    90   45  122 1    
    91   46  123 1    
    92   46  124 1    
    93   46  125 1    
    94   47   48 am   BACKBONE|DICT|INTERRES
    95   47  126 1    
    96   48   49 2    
    97   48   50 1    
    98   50   51 1    
    99   50   52 1    
   100   50  127 1    
   101   51  128 1    
   102   51  129 1    
   103   51  130 1    
   104   52   53 am   BACKBONE|DICT|INTERRES
   105   52  131 1    
   106   53   54 2    
   107   53   55 1    
   108   55   56 1    
   109   55   59 1    
   110   55  132 1    
   111   56   57 1    
   112   56  133 1    
   113   56  134 1    
   114   57   58 1    
   115   58  135 1    
   116   58  136 1    
   117   59   60 am   BACKBONE|DICT|INTERRES
   118   59  137 1    
   119   60   61 2    
   120   60   62 1    
   121   62   63 1    
   122   62   64 1    
   123   62  138 1    
   124   63  139 1    
   125   63  140 1    
   126   63  141 1    
   127   64   65 am   BACKBONE|DICT|INTERRES
   128   64  142 1    
   129   65   66 2    
   130   65   67 1    
   131   67   68 1    
   132   67   69 1    
   133   67  143 1    
   134   68  144 1    
   135   68  145 1    
   136   68  146 1    
   137   69   70 am   BACKBONE|DICT|INTERRES
   138   69  147 1    
   139   70   71 2    
   140   70   72 1    
   141   72   73 1    
   142   72   74 1    
   143   72  148 1    
   144   73  149 1    
   145   73  150 1    
   146   73  151 1    
   147   74   75 am   BACKBONE|DICT|INTERRES
   148   74  152 1    
   149   75   76 2    
   150   75   77 1    
   151   77   78 1    
   152   77   79 1    
   153   77  153 1    
   154   78  154 1    
   155   78  155 1    
   156   78  156 1    
   157   79   80 am   BACKBONE|DICT|INTERRES
   158   79  157 1    
   159   80   81 2    
@<TRIPOS>SUBSTRUCTURE
     1 UNK         1 GROUP             0       ****    0 ROOT    
