@<TRIPOS>MOLECULE
3R207
157   159    1
SMALL
USER_CHARGES


@<TRIPOS>ATOM
      1 CA        -49.0681  -24.1486    4.6872 C.3       0 UNK        -0.1975 
      2 C         -49.0750  -25.6680    4.7775 C.2       0 UNK         0.4852 
      3 O         -48.4100  -26.3249    3.9769 O.2       0 UNK        -0.5216 
      4 N         -49.8356  -26.2182    5.7341 N.am      1 UNK        -0.4461 
      5 CA        -50.0407  -27.6524    5.9642 C.3       1 UNK         0.0864 
      6 C6        -50.7761  -28.3428    4.7790 C.3       14 UNK        -0.0898 
      7 S7        -51.7153  -29.8194    5.2978 S.3       14 UNK        -0.2598 
      8 C8        -53.3849  -29.1315    5.5535 C.3       14 UNK         0.0286 
      9 C9        -53.4085  -28.0927    6.6665 C.ar      14 UNK        -0.0844 
     10 C10       -53.6516  -26.7465    6.3767 C.ar      14 UNK        -0.0881 
     11 C11       -53.6550  -25.7888    7.3962 C.ar      14 UNK        -0.0643 
     12 C12       -53.4152  -26.1883    8.7154 C.ar      14 UNK        -0.0930 
     13 C13       -53.1367  -27.5263    9.0105 C.ar      14 UNK        -0.0827 
     14 C14       -53.1556  -28.4758    7.9863 C.ar      14 UNK        -0.1249 
     15 C15       -52.7418  -27.9458   10.4162 C.3       14 UNK         0.0141 
     16 S16       -54.0840  -28.8104   11.2864 S.3       14 UNK        -0.2313 
     17 C17       -53.0956  -29.9428   12.3201 C.3       14 UNK        -0.0915 
     18 CA        -53.9240  -30.6662   13.4126 C.3       13 UNK         0.0968 
     19 C         -53.0975  -31.7925   14.1036 C.2       13 UNK         0.5732 
     20 N         -52.9622  -31.8269   15.4250 N.am      13 UNK        -0.7310 
     21 O         -52.5750  -32.6717   13.4224 O.2       13 UNK        -0.5035 
     22 N         -54.5376  -29.7188   14.3559 N.am      13 UNK        -0.4233 
     23 C         -55.6918  -29.9481   14.9966 C.2       13 UNK         0.4989 
     24 O         -56.4018  -30.9337   14.7861 O.2       13 UNK        -0.4996 
     25 CA        -56.1259  -28.9108   16.0521 C.3       12 UNK         0.0216 
     26 CB        -57.1711  -29.4676   17.0426 C.3       12 UNK        -0.1964 
     27 N         -55.0077  -28.3004   16.7822 N.am      12 UNK        -0.4276 
     28 C         -54.0654  -28.9233   17.5101 C.2       12 UNK         0.5020 
     29 O         -54.0079  -30.1474   17.6366 O.2       12 UNK        -0.5489 
     30 CA        -52.9894  -28.0481   18.1850 C.3       11 UNK         0.0294 
     31 CB        -51.5909  -28.6807   18.0590 C.3       11 UNK        -0.2019 
     32 N         -52.9507  -26.7067   17.6017 N.am      11 UNK        -0.4493 
     33 C         -53.4797  -25.6003   18.1436 C.2       11 UNK         0.4932 
     34 O         -53.9749  -25.5587   19.2696 O.2       11 UNK        -0.5029 
     35 CA        -53.4960  -24.3299   17.2687 C.3       10 UNK         0.0280 
     36 CB        -52.3328  -23.4019   17.6513 C.3       10 UNK        -0.1976 
     37 N         -53.4430  -24.6172   15.8298 N.am      10 UNK        -0.4242 
     38 C         -54.4123  -25.2545   15.1502 C.2       10 UNK         0.5072 
     39 O         -55.4915  -25.5692   15.6515 O.2       10 UNK        -0.5224 
     40 CA        -54.1118  -25.6989   13.7059 C.3       9 UNK         0.0343 
     41 CB        -54.7336  -24.7222   12.6975 C.3       9 UNK        -0.2003 
     42 N         -52.6793  -25.8529   13.4356 N.am      9 UNK        -0.4272 
     43 C         -51.8847  -26.7452   14.0498 C.2       9 UNK         0.4988 
     44 O         -52.3213  -27.6075   14.8136 O.2       9 UNK        -0.5108 
     45 CA        -50.3581  -26.6383   13.8416 C.3       8 UNK         0.0248 
     46 CB        -49.8245  -27.8072   12.9985 C.3       8 UNK        -0.2001 
     47 N         -49.9118  -25.3749   13.2471 N.am      8 UNK        -0.4140 
     48 C         -50.0782  -24.1593   13.7888 C.2       8 UNK         0.5028 
     49 O         -50.5839  -23.9699   14.8955 O.2       8 UNK        -0.5428 
     50 CA        -49.6908  -22.9491   12.9186 C.3       7 UNK         0.0264 
     51 CB        -48.2734  -22.4764   13.2727 C.3       7 UNK        -0.1988 
     52 N         -49.7960  -23.1769   11.4667 N.am      7 UNK        -0.4454 
     53 C         -50.9221  -23.5525   10.8324 C.2       7 UNK         0.5027 
     54 O         -51.9651  -23.8136   11.4315 O.2       7 UNK        -0.5083 
     55 CA        -50.9158  -23.6943    9.2951 C.3       6 UNK         0.0844 
     56 C56       -52.0639  -22.8795    8.6499 C.3       14 UNK        -0.0967 
     57 S57       -52.3653  -23.3720    6.9174 S.3       14 UNK        -0.2604 
     58 C58       -53.9145  -24.3258    7.0630 C.3       14 UNK         0.0134 
     59 N         -49.6162  -23.3791    8.6974 N.am      6 UNK        -0.4116 
     60 C         -48.6308  -24.2676    8.5375 C.2       5 UNK         0.5034 
     61 O         -48.7297  -25.4528    8.8598 O.2       5 UNK        -0.5045 
     62 CA        -47.3205  -23.7760    7.8977 C.3       5 UNK         0.0224 
     63 CB        -47.2790  -22.2652    7.5685 C.3       5 UNK        -0.1978 
     64 N         -46.1683  -24.1802    8.7047 N.am      5 UNK        -0.4737 
     65 C         -45.8857  -23.8070    9.9610 C.2       4 UNK         0.5027 
     66 O         -46.5510  -22.9764   10.5803 O.2       4 UNK        -0.5211 
     67 CA        -44.6889  -24.4922   10.6562 C.3       4 UNK         0.0297 
     68 CB        -44.9798  -24.7576   12.1449 C.3       4 UNK        -0.1993 
     69 N         -44.3291  -25.7610   10.0161 N.am      4 UNK        -0.4486 
     70 C         -43.4317  -25.9192    9.0330 C.2       3 UNK         0.4961 
     71 O         -42.7091  -25.0169    8.6107 O.2       3 UNK        -0.5105 
     72 CA        -43.3642  -27.3144    8.3777 C.3       3 UNK         0.0299 
     73 CB        -42.2457  -28.1541    9.0152 C.3       3 UNK        -0.1972 
     74 N         -44.6319  -28.0553    8.4489 N.am      3 UNK        -0.4305 
     75 C         -45.7768  -27.6656    7.8685 C.2       2 UNK         0.5006 
     76 O         -45.8596  -26.6776    7.1353 O.2       2 UNK        -0.5106 
     77 CA        -47.0303  -28.4836    8.2211 C.3       2 UNK         0.0296 
     78 CB        -47.2853  -28.4787    9.7422 C.3       2 UNK        -0.2002 
     79 N         -48.2148  -27.9279    7.5674 N.am      2 UNK        -0.4032 
     80 C         -48.7512  -28.3724    6.4245 C.2       1 UNK         0.5000 
     81 O         -48.2793  -29.3052    5.7687 O.2       1 UNK        -0.5238 
     82 H82       -49.5384  -23.8301    3.7573 H         1 UNK         0.0889 
     83 H83       -48.0453  -23.7731    4.6935 H         1 UNK         0.0889 
     84 H84       -49.6084  -23.6857    5.5122 H         1 UNK         0.0889 
     85 H85       -50.3638  -25.6130    6.3476 H         1 UNK         0.3028 
     86 H86       -50.7038  -27.6871    6.8283 H         1 UNK         0.0864 
     87 H87       -50.0789  -28.6208    3.9866 H         1 UNK         0.0720 
     88 H88       -51.4766  -27.6467    4.3151 H         1 UNK         0.0720 
     89 H89       -53.7501  -28.7110    4.6152 H         1 UNK         0.0814 
     90 H90       -54.0664  -29.9439    5.8098 H         1 UNK         0.0814 
     91 H91       -53.8315  -26.4409    5.3549 H         1 UNK         0.1469 
     92 H92       -53.4117  -25.4521    9.5068 H         1 UNK         0.1381 
     93 H93       -52.9407  -29.5118    8.2113 H         1 UNK         0.1206 
     94 H94       -52.4338  -27.0787   10.9995 H         1 UNK         0.0813 
     95 H95       -51.8676  -28.5949   10.3480 H         1 UNK         0.0813 
     96 H96       -52.6345  -30.6676   11.6464 H         1 UNK         0.0638 
     97 H97       -52.2772  -29.3889   12.7764 H         1 UNK         0.0638 
     98 H98       -54.7272  -31.1900   12.8910 H         1 UNK         0.0568 
     99 H99       -53.4047  -31.1401   16.0267 H         1 UNK         0.3450 
    100 H100      -52.4265  -32.5730   15.8377 H         1 UNK         0.3450 
    101 H101      -53.9724  -28.9152   14.6043 H         1 UNK         0.2987 
    102 H102      -56.6014  -28.1029   15.4943 H         1 UNK         0.0766 
    103 H103      -57.4821  -28.7078   17.7595 H         1 UNK         0.0798 
    104 H104      -58.0684  -29.8032   16.5210 H         1 UNK         0.0798 
    105 H105      -56.7824  -30.3187   17.6030 H         1 UNK         0.0798 
    106 H106      -54.9652  -27.2895   16.7138 H         1 UNK         0.3198 
    107 H107      -53.2428  -27.9918   19.2456 H         1 UNK         0.0843 
    108 H108      -51.5534  -29.6521   18.5535 H         1 UNK         0.0831 
    109 H109      -50.8288  -28.0545   18.5229 H         1 UNK         0.0831 
    110 H110      -51.3097  -28.8359   17.0167 H         1 UNK         0.0831 
    111 H111      -52.5928  -26.6641   16.6539 H         1 UNK         0.3133 
    112 H112      -54.4314  -23.8034   17.4691 H         1 UNK         0.0566 
    113 H113      -51.3659  -23.8834   17.4994 H         1 UNK         0.0814 
    114 H114      -52.3918  -23.1155   18.7022 H         1 UNK         0.0814 
    115 H115      -52.3454  -22.4837   17.0637 H         1 UNK         0.0814 
    116 H116      -52.5699  -24.3978   15.3588 H         1 UNK         0.3091 
    117 H117      -54.5808  -26.6744   13.5619 H         1 UNK         0.0702 
    118 H118      -55.8098  -24.6346   12.8519 H         1 UNK         0.0785 
    119 H119      -54.5807  -25.0613   11.6731 H         1 UNK         0.0785 
    120 H120      -54.3078  -23.7222   12.7889 H         1 UNK         0.0785 
    121 H121      -52.2683  -25.1640   12.8117 H         1 UNK         0.2998 
    122 H122      -49.9056  -26.7059   14.8331 H         1 UNK         0.0697 
    123 H123      -48.7362  -27.7852   12.9364 H         1 UNK         0.0825 
    124 H124      -50.2153  -27.7885   11.9817 H         1 UNK         0.0825 
    125 H125      -50.0964  -28.7657   13.4422 H         1 UNK         0.0825 
    126 H126      -49.4968  -25.4261   12.3283 H         1 UNK         0.3029 
    127 H127      -50.3872  -22.1451   13.1661 H         1 UNK         0.0897 
    128 H128      -47.9928  -21.5896   12.7041 H         1 UNK         0.0792 
    129 H129      -48.2006  -22.2196   14.3305 H         1 UNK         0.0792 
    130 H130      -47.5324  -23.2510   13.0754 H         1 UNK         0.0792 
    131 H131      -48.9588  -23.0063   10.9237 H         1 UNK         0.3086 
    132 H132      -51.1273  -24.7485    9.1118 H         1 UNK         0.0583 
    133 H133      -52.9938  -22.9889    9.2107 H         1 UNK         0.1020 
    134 H134      -51.8362  -21.8124    8.6740 H         1 UNK         0.1020 
    135 H135      -54.5739  -23.8788    7.8080 H         1 UNK         0.0694 
    136 H136      -54.4496  -24.2525    6.1149 H         1 UNK         0.0694 
    137 H137      -49.4666  -22.4217    8.4138 H         1 UNK         0.2989 
    138 H138      -47.2262  -24.3215    6.9586 H         1 UNK         0.1055 
    139 H139      -46.3292  -21.9967    7.1056 H         1 UNK         0.0806 
    140 H140      -47.3961  -21.6409    8.4549 H         1 UNK         0.0806 
    141 H141      -48.0611  -21.9893    6.8602 H         1 UNK         0.0806 
    142 H142      -45.6141  -24.9233    8.2944 H         1 UNK         0.3061 
    143 H143      -43.8455  -23.8014   10.5953 H         1 UNK         0.0734 
    144 H144      -45.1447  -23.8235   12.6833 H         1 UNK         0.0832 
    145 H145      -45.8690  -25.3747   12.2800 H         1 UNK         0.0832 
    146 H146      -44.1432  -25.2607   12.6302 H         1 UNK         0.0832 
    147 H147      -44.8756  -26.5655   10.2857 H         1 UNK         0.3156 
    148 H148      -43.1231  -27.1692    7.3225 H         1 UNK         0.0589 
    149 H149      -42.4385  -28.3525   10.0704 H         1 UNK         0.0808 
    150 H150      -42.1289  -29.1120    8.5079 H         1 UNK         0.0808 
    151 H151      -41.2866  -27.6379    8.9514 H         1 UNK         0.0808 
    152 H152      -44.6354  -28.8895    9.0189 H         1 UNK         0.3098 
    153 H153      -46.8687  -29.5130    7.8948 H         1 UNK         0.0720 
    154 H154      -48.2094  -29.0029    9.9875 H         1 UNK         0.0791 
    155 H155      -46.4854  -28.9797   10.2880 H         1 UNK         0.0791 
    156 H156      -47.3683  -27.4646   10.1360 H         1 UNK         0.0791 
    157 H157      -48.5869  -27.0829    7.9956 H         1 UNK         0.3028 
@<TRIPOS>BOND
     1    1    2 1    
     2    1   82 1    
     3    1   83 1    
     4    1   84 1    
     5    2    3 2    
     6    2    4 am   BACKBONE|DICT|INTERRES
     7    4    5 1    
     8    4   85 1    
     9    5    6 1    
    10    5   80 1    
    11    5   86 1    
    12    6    7 1    
    13    6   87 1    
    14    6   88 1    
    15    7    8 1    
    16    8    9 1    
    17    8   89 1    
    18    8   90 1    
    19    9   10 ar   
    20    9   14 ar   
    21   10   11 ar   
    22   10   91 1    
    23   11   12 ar   
    24   11   58 1    
    25   12   13 ar   
    26   12   92 1    
    27   13   14 ar   
    28   13   15 1    
    29   14   93 1    
    30   15   16 1    
    31   15   94 1    
    32   15   95 1    
    33   16   17 1    
    34   17   18 1    
    35   17   96 1    
    36   17   97 1    
    37   18   19 1    
    38   18   22 1    
    39   18   98 1    
    40   19   20 am   BACKBONE|DICT|INTERRES
    41   19   21 2    
    42   20   99 1    
    43   20  100 1    
    44   22   23 am   BACKBONE|DICT|INTERRES
    45   22  101 1    
    46   23   24 2    
    47   23   25 1    
    48   25   26 1    
    49   25   27 1    
    50   25  102 1    
    51   26  103 1    
    52   26  104 1    
    53   26  105 1    
    54   27   28 am   BACKBONE|DICT|INTERRES
    55   27  106 1    
    56   28   29 2    
    57   28   30 1    
    58   30   31 1    
    59   30   32 1    
    60   30  107 1    
    61   31  108 1    
    62   31  109 1    
    63   31  110 1    
    64   32   33 am   BACKBONE|DICT|INTERRES
    65   32  111 1    
    66   33   34 2    
    67   33   35 1    
    68   35   36 1    
    69   35   37 1    
    70   35  112 1    
    71   36  113 1    
    72   36  114 1    
    73   36  115 1    
    74   37   38 am   BACKBONE|DICT|INTERRES
    75   37  116 1    
    76   38   39 2    
    77   38   40 1    
    78   40   41 1    
    79   40   42 1    
    80   40  117 1    
    81   41  118 1    
    82   41  119 1    
    83   41  120 1    
    84   42   43 am   BACKBONE|DICT|INTERRES
    85   42  121 1    
    86   43   44 2    
    87   43   45 1    
    88   45   46 1    
    89   45   47 1    
    90   45  122 1    
    91   46  123 1    
    92   46  124 1    
    93   46  125 1    
    94   47   48 am   BACKBONE|DICT|INTERRES
    95   47  126 1    
    96   48   49 2    
    97   48   50 1    
    98   50   51 1    
    99   50   52 1    
   100   50  127 1    
   101   51  128 1    
   102   51  129 1    
   103   51  130 1    
   104   52   53 am   BACKBONE|DICT|INTERRES
   105   52  131 1    
   106   53   54 2    
   107   53   55 1    
   108   55   56 1    
   109   55   59 1    
   110   55  132 1    
   111   56   57 1    
   112   56  133 1    
   113   56  134 1    
   114   57   58 1    
   115   58  135 1    
   116   58  136 1    
   117   59   60 am   BACKBONE|DICT|INTERRES
   118   59  137 1    
   119   60   61 2    
   120   60   62 1    
   121   62   63 1    
   122   62   64 1    
   123   62  138 1    
   124   63  139 1    
   125   63  140 1    
   126   63  141 1    
   127   64   65 am   BACKBONE|DICT|INTERRES
   128   64  142 1    
   129   65   66 2    
   130   65   67 1    
   131   67   68 1    
   132   67   69 1    
   133   67  143 1    
   134   68  144 1    
   135   68  145 1    
   136   68  146 1    
   137   69   70 am   BACKBONE|DICT|INTERRES
   138   69  147 1    
   139   70   71 2    
   140   70   72 1    
   141   72   73 1    
   142   72   74 1    
   143   72  148 1    
   144   73  149 1    
   145   73  150 1    
   146   73  151 1    
   147   74   75 am   BACKBONE|DICT|INTERRES
   148   74  152 1    
   149   75   76 2    
   150   75   77 1    
   151   77   78 1    
   152   77   79 1    
   153   77  153 1    
   154   78  154 1    
   155   78  155 1    
   156   78  156 1    
   157   79   80 am   BACKBONE|DICT|INTERRES
   158   79  157 1    
   159   80   81 2    
@<TRIPOS>SUBSTRUCTURE
     1 UNK         1 GROUP             0       ****    0 ROOT    
