@<TRIPOS>MOLECULE
3R207
157   159    1
SMALL
USER_CHARGES


@<TRIPOS>ATOM
      1 CA        -44.9408  -26.2590   10.5185 C.3       0 UNK        -0.1975 
      2 C         -45.8078  -27.4191   10.0567 C.2       0 UNK         0.4852 
      3 O         -45.2845  -28.4967    9.7677 O.2       0 UNK        -0.5216 
      4 N         -47.1295  -27.2160    9.9751 N.am      1 UNK        -0.4461 
      5 CA        -48.1126  -28.2438    9.6073 C.3       1 UNK         0.0864 
      6 C6        -49.4883  -28.0373   10.2944 C.3       14 UNK        -0.0898 
      7 S7        -50.1622  -26.3441   10.2154 S.3       14 UNK        -0.2598 
      8 C8        -51.6629  -26.5522    9.2095 C.3       14 UNK         0.0286 
      9 C9        -52.6235  -25.3958    9.4456 C.ar      14 UNK        -0.0844 
     10 C10       -52.3682  -24.1450    8.8774 C.ar      14 UNK        -0.0881 
     11 C11       -53.2081  -23.0602    9.1444 C.ar      14 UNK        -0.0643 
     12 C12       -54.3436  -23.2548    9.9368 C.ar      14 UNK        -0.0930 
     13 C13       -54.6362  -24.5061   10.4893 C.ar      14 UNK        -0.0827 
     14 C14       -53.7562  -25.5702   10.2481 C.ar      14 UNK        -0.1249 
     15 C15       -55.9216  -24.6462   11.3124 C.3       14 UNK         0.0141 
     16 S16       -55.9738  -26.0310   12.5012 S.3       14 UNK        -0.2313 
     17 C17       -56.5776  -27.4167   11.4757 C.3       14 UNK        -0.0915 
     18 CA        -57.2733  -28.5329   12.3029 C.3       13 UNK         0.0968 
     19 C         -57.6966  -29.6968   11.3582 C.2       13 UNK         0.5732 
     20 N         -56.9895  -30.8224   11.3290 N.am      13 UNK        -0.7310 
     21 O         -58.6835  -29.5709   10.6374 O.2       13 UNK        -0.5035 
     22 N         -56.4409  -28.9423   13.4415 N.am      13 UNK        -0.4233 
     23 C         -56.7546  -29.8273   14.3958 C.2       13 UNK         0.4989 
     24 O         -57.8755  -30.3196   14.5347 O.2       13 UNK        -0.4996 
     25 CA        -55.6046  -30.2392   15.3412 C.3       12 UNK         0.0216 
     26 CB        -55.7466  -31.6872   15.8551 C.3       12 UNK        -0.1964 
     27 N         -54.2732  -30.0196   14.7542 N.am      12 UNK        -0.4276 
     28 C         -53.7798  -30.5576   13.6266 C.2       12 UNK         0.5020 
     29 O         -54.3715  -31.3961   12.9444 O.2       12 UNK        -0.5489 
     30 CA        -52.4383  -29.9982   13.1258 C.3       11 UNK         0.0294 
     31 CB        -52.7031  -28.8026   12.1971 C.3       11 UNK        -0.2019 
     32 N         -51.5367  -29.5768   14.2004 N.am      11 UNK        -0.4493 
     33 C         -50.9552  -30.4038   15.0817 C.2       11 UNK         0.4932 
     34 O         -51.0971  -31.6267   15.0769 O.2       11 UNK        -0.5029 
     35 CA        -50.0739  -29.7526   16.1572 C.3       10 UNK         0.0280 
     36 CB        -48.6664  -29.4668   15.6073 C.3       10 UNK        -0.1976 
     37 N         -50.6779  -28.5126   16.6476 N.am      10 UNK        -0.4242 
     38 C         -51.5908  -28.4551   17.6286 C.2       10 UNK         0.5072 
     39 O         -51.9573  -29.4337   18.2804 O.2       10 UNK        -0.5224 
     40 CA        -52.2103  -27.0798   17.9433 C.3       9 UNK         0.0343 
     41 CB        -51.4352  -26.3889   19.0768 C.3       9 UNK        -0.2003 
     42 N         -52.2751  -26.1824   16.7876 N.am      9 UNK        -0.4272 
     43 C         -53.0449  -26.3810   15.7083 C.2       9 UNK         0.4988 
     44 O         -53.8140  -27.3331   15.5806 O.2       9 UNK        -0.5108 
     45 CA        -52.8898  -25.3763   14.5541 C.3       8 UNK         0.0248 
     46 CB        -53.8191  -24.1695   14.7570 C.3       8 UNK        -0.2001 
     47 N         -51.5190  -24.9013   14.3438 N.am      8 UNK        -0.4140 
     48 C         -50.4385  -25.6678   14.1455 C.2       8 UNK         0.5028 
     49 O         -50.4597  -26.8998   14.1950 O.2       8 UNK        -0.5428 
     50 CA        -49.1238  -24.9233   13.8434 C.3       7 UNK         0.0264 
     51 CB        -47.9179  -25.8766   13.7425 C.3       7 UNK        -0.1988 
     52 N         -49.2191  -24.1643   12.5975 N.am      7 UNK        -0.4454 
     53 C         -49.8904  -23.0247   12.3969 C.2       7 UNK         0.5027 
     54 O         -50.4622  -22.4043   13.2964 O.2       7 UNK        -0.5083 
     55 CA        -49.9197  -22.5103   10.9442 C.3       6 UNK         0.0844 
     56 C56       -50.9894  -21.4123   10.7084 C.3       14 UNK        -0.0967 
     57 S57       -51.2040  -21.0881    8.9216 S.3       14 UNK        -0.2604 
     58 C58       -52.9039  -21.6723    8.5868 C.3       14 UNK         0.0134 
     59 N         -48.5877  -22.0745   10.5155 N.am      6 UNK        -0.4116 
     60 C         -47.5869  -22.8833   10.1483 C.2       5 UNK         0.5034 
     61 O         -47.6442  -24.1168   10.1802 O.2       5 UNK        -0.5045 
     62 CA        -46.2860  -22.1964    9.6989 C.3       5 UNK         0.0224 
     63 CB        -45.2941  -22.1081   10.8703 C.3       5 UNK        -0.1978 
     64 N         -45.6598  -22.9140    8.5859 N.am      5 UNK        -0.4737 
     65 C         -46.1921  -23.0171    7.3609 C.2       4 UNK         0.5027 
     66 O         -47.2103  -22.4166    7.0123 O.2       4 UNK        -0.5211 
     67 CA        -45.4926  -23.9418    6.3523 C.3       4 UNK         0.0297 
     68 CB        -44.2991  -24.7343    6.9256 C.3       4 UNK        -0.1993 
     69 N         -46.4867  -24.8851    5.8490 N.am      4 UNK        -0.4486 
     70 C         -46.8969  -24.9907    4.5806 C.2       3 UNK         0.4961 
     71 O         -46.4496  -24.3131    3.6531 O.2       3 UNK        -0.5105 
     72 CA        -47.9967  -26.0408    4.3144 C.3       3 UNK         0.0299 
     73 CB        -48.1377  -26.3961    2.8187 C.3       3 UNK        -0.1972 
     74 N         -47.8475  -27.2592    5.1242 N.am      3 UNK        -0.4305 
     75 C         -46.8042  -28.1020    5.1481 C.2       2 UNK         0.5006 
     76 O         -45.7813  -27.9518    4.4773 O.2       2 UNK        -0.5106 
     77 CA        -46.9323  -29.3139    6.0922 C.3       2 UNK         0.0296 
     78 CB        -45.7437  -30.2868    5.9718 C.3       2 UNK        -0.2002 
     79 N         -47.0779  -28.9265    7.4980 N.am      2 UNK        -0.4032 
     80 C         -48.1872  -28.4508    8.0789 C.2       1 UNK         0.5000 
     81 O         -49.2176  -28.1901    7.4532 O.2       1 UNK        -0.5238 
     82 H82       -44.8228  -26.2871   11.6013 H         1 UNK         0.0889 
     83 H83       -45.3785  -25.3025   10.2452 H         1 UNK         0.0889 
     84 H84       -43.9513  -26.3175   10.0659 H         1 UNK         0.0889 
     85 H85       -47.5097  -26.2914   10.1517 H         1 UNK         0.3028 
     86 H86       -47.7480  -29.1977    9.9964 H         1 UNK         0.0864 
     87 H87       -49.3823  -28.2720   11.3550 H         1 UNK         0.0720 
     88 H88       -50.2199  -28.7543    9.9179 H         1 UNK         0.0720 
     89 H89       -52.1471  -27.4987    9.4520 H         1 UNK         0.0814 
     90 H90       -51.3889  -26.6049    8.1550 H         1 UNK         0.0814 
     91 H91       -51.4899  -24.0055    8.2617 H         1 UNK         0.1469 
     92 H92       -55.0084  -22.4228   10.1261 H         1 UNK         0.1381 
     93 H93       -53.9410  -26.5406   10.6801 H         1 UNK         0.1206 
     94 H94       -56.0673  -23.7323   11.8903 H         1 UNK         0.0813 
     95 H95       -56.7733  -24.7120   10.6346 H         1 UNK         0.0813 
     96 H96       -55.7322  -27.8307   10.9247 H         1 UNK         0.0638 
     97 H97       -57.2680  -27.0241   10.7271 H         1 UNK         0.0638 
     98 H98       -58.1928  -28.1205   12.7215 H         1 UNK         0.0568 
     99 H99       -57.2771  -31.5660   10.7136 H         1 UNK         0.3450 
    100 H100      -56.1727  -30.9429   11.9167 H         1 UNK         0.3450 
    101 H101      -55.5093  -28.5569   13.4515 H         1 UNK         0.2987 
    102 H102      -55.6683  -29.5720   16.2020 H         1 UNK         0.0766 
    103 H103      -55.7626  -32.4076   15.0367 H         1 UNK         0.0798 
    104 H104      -56.6720  -31.8146   16.4179 H         1 UNK         0.0798 
    105 H105      -54.9249  -31.9531   16.5201 H         1 UNK         0.0798 
    106 H106      -53.7522  -29.2524   15.1716 H         1 UNK         0.3198 
    107 H107      -51.9368  -30.7818   12.5539 H         1 UNK         0.0843 
    108 H108      -53.2870  -28.0274   12.6926 H         1 UNK         0.0831 
    109 H109      -53.2566  -29.1118   11.3095 H         1 UNK         0.0831 
    110 H110      -51.7748  -28.3452   11.8627 H         1 UNK         0.0831 
    111 H111      -51.2931  -28.5885   14.2361 H         1 UNK         0.3133 
    112 H112      -49.9714  -30.4565   16.9860 H         1 UNK         0.0566 
    113 H113      -48.6919  -28.8083   14.7387 H         1 UNK         0.0814 
    114 H114      -48.1776  -30.3911   15.2968 H         1 UNK         0.0814 
    115 H115      -48.0317  -29.0023   16.3620 H         1 UNK         0.0814 
    116 H116      -50.4855  -27.6774   16.1063 H         1 UNK         0.3091 
    117 H117      -53.2325  -27.2540   18.2862 H         1 UNK         0.0702 
    118 H118      -51.9120  -25.4538   19.3718 H         1 UNK         0.0785 
    119 H119      -50.4072  -26.1668   18.7873 H         1 UNK         0.0785 
    120 H120      -51.3941  -27.0229   19.9638 H         1 UNK         0.0785 
    121 H121      -51.6722  -25.3728   16.8020 H         1 UNK         0.2998 
    122 H122      -53.1897  -25.8847   13.6371 H         1 UNK         0.0697 
    123 H123      -53.5171  -23.5637   15.6121 H         1 UNK         0.0825 
    124 H124      -54.8466  -24.4916   14.9320 H         1 UNK         0.0825 
    125 H125      -53.8299  -23.5282   13.8752 H         1 UNK         0.0825 
    126 H126      -51.3941  -23.8992   14.2377 H         1 UNK         0.3029 
    127 H127      -48.9404  -24.2278   14.6650 H         1 UNK         0.0897 
    128 H128      -48.0481  -26.6084   12.9439 H         1 UNK         0.0792 
    129 H129      -47.7782  -26.4287   14.6726 H         1 UNK         0.0792 
    130 H130      -46.9945  -25.3308   13.5483 H         1 UNK         0.0792 
    131 H131      -48.7838  -24.5819   11.7807 H         1 UNK         0.3086 
    132 H132      -50.1987  -23.3680   10.3319 H         1 UNK         0.0583 
    133 H133      -51.9480  -21.7032   11.1420 H         1 UNK         0.1020 
    134 H134      -50.7080  -20.4833   11.2073 H         1 UNK         0.1020 
    135 H135      -53.5997  -20.9357    8.9918 H         1 UNK         0.0694 
    136 H136      -53.0644  -21.6839    7.5081 H         1 UNK         0.0694 
    137 H137      -48.4458  -21.0760   10.4796 H         1 UNK         0.2989 
    138 H138      -46.5186  -21.1847    9.3584 H         1 UNK         0.1055 
    139 H139      -45.0288  -23.0933   11.2553 H         1 UNK         0.0806 
    140 H140      -45.7196  -21.5414   11.6997 H         1 UNK         0.0806 
    141 H141      -44.3739  -21.6035   10.5752 H         1 UNK         0.0806 
    142 H142      -44.8252  -23.4405    8.7953 H         1 UNK         0.3061 
    143 H143      -45.1222  -23.3032    5.5478 H         1 UNK         0.0734 
    144 H144      -44.5985  -25.3945    7.7393 H         1 UNK         0.0832 
    145 H145      -43.8451  -25.3576    6.1546 H         1 UNK         0.0832 
    146 H146      -43.5161  -24.0702    7.2939 H         1 UNK         0.0832 
    147 H147      -46.9588  -25.4445    6.5444 H         1 UNK         0.3156 
    148 H148      -48.9337  -25.5806    4.6314 H         1 UNK         0.0589 
    149 H149      -48.9362  -27.1200    2.6562 H         1 UNK         0.0808 
    150 H150      -48.3790  -25.5123    2.2269 H         1 UNK         0.0808 
    151 H151      -47.2162  -26.8161    2.4143 H         1 UNK         0.0808 
    152 H152      -48.6102  -27.4684    5.7652 H         1 UNK         0.3098 
    153 H153      -47.8313  -29.8561    5.7913 H         1 UNK         0.0720 
    154 H154      -44.8064  -29.8184    6.2756 H         1 UNK         0.0791 
    155 H155      -45.6202  -30.6299    4.9436 H         1 UNK         0.0791 
    156 H156      -45.8915  -31.1724    6.5902 H         1 UNK         0.0791 
    157 H157      -46.2607  -29.0378    8.0910 H         1 UNK         0.3028 
@<TRIPOS>BOND
     1    1    2 1    
     2    1   82 1    
     3    1   83 1    
     4    1   84 1    
     5    2    3 2    
     6    2    4 am   BACKBONE|DICT|INTERRES
     7    4    5 1    
     8    4   85 1    
     9    5    6 1    
    10    5   80 1    
    11    5   86 1    
    12    6    7 1    
    13    6   87 1    
    14    6   88 1    
    15    7    8 1    
    16    8    9 1    
    17    8   89 1    
    18    8   90 1    
    19    9   10 ar   
    20    9   14 ar   
    21   10   11 ar   
    22   10   91 1    
    23   11   12 ar   
    24   11   58 1    
    25   12   13 ar   
    26   12   92 1    
    27   13   14 ar   
    28   13   15 1    
    29   14   93 1    
    30   15   16 1    
    31   15   94 1    
    32   15   95 1    
    33   16   17 1    
    34   17   18 1    
    35   17   96 1    
    36   17   97 1    
    37   18   19 1    
    38   18   22 1    
    39   18   98 1    
    40   19   20 am   BACKBONE|DICT|INTERRES
    41   19   21 2    
    42   20   99 1    
    43   20  100 1    
    44   22   23 am   BACKBONE|DICT|INTERRES
    45   22  101 1    
    46   23   24 2    
    47   23   25 1    
    48   25   26 1    
    49   25   27 1    
    50   25  102 1    
    51   26  103 1    
    52   26  104 1    
    53   26  105 1    
    54   27   28 am   BACKBONE|DICT|INTERRES
    55   27  106 1    
    56   28   29 2    
    57   28   30 1    
    58   30   31 1    
    59   30   32 1    
    60   30  107 1    
    61   31  108 1    
    62   31  109 1    
    63   31  110 1    
    64   32   33 am   BACKBONE|DICT|INTERRES
    65   32  111 1    
    66   33   34 2    
    67   33   35 1    
    68   35   36 1    
    69   35   37 1    
    70   35  112 1    
    71   36  113 1    
    72   36  114 1    
    73   36  115 1    
    74   37   38 am   BACKBONE|DICT|INTERRES
    75   37  116 1    
    76   38   39 2    
    77   38   40 1    
    78   40   41 1    
    79   40   42 1    
    80   40  117 1    
    81   41  118 1    
    82   41  119 1    
    83   41  120 1    
    84   42   43 am   BACKBONE|DICT|INTERRES
    85   42  121 1    
    86   43   44 2    
    87   43   45 1    
    88   45   46 1    
    89   45   47 1    
    90   45  122 1    
    91   46  123 1    
    92   46  124 1    
    93   46  125 1    
    94   47   48 am   BACKBONE|DICT|INTERRES
    95   47  126 1    
    96   48   49 2    
    97   48   50 1    
    98   50   51 1    
    99   50   52 1    
   100   50  127 1    
   101   51  128 1    
   102   51  129 1    
   103   51  130 1    
   104   52   53 am   BACKBONE|DICT|INTERRES
   105   52  131 1    
   106   53   54 2    
   107   53   55 1    
   108   55   56 1    
   109   55   59 1    
   110   55  132 1    
   111   56   57 1    
   112   56  133 1    
   113   56  134 1    
   114   57   58 1    
   115   58  135 1    
   116   58  136 1    
   117   59   60 am   BACKBONE|DICT|INTERRES
   118   59  137 1    
   119   60   61 2    
   120   60   62 1    
   121   62   63 1    
   122   62   64 1    
   123   62  138 1    
   124   63  139 1    
   125   63  140 1    
   126   63  141 1    
   127   64   65 am   BACKBONE|DICT|INTERRES
   128   64  142 1    
   129   65   66 2    
   130   65   67 1    
   131   67   68 1    
   132   67   69 1    
   133   67  143 1    
   134   68  144 1    
   135   68  145 1    
   136   68  146 1    
   137   69   70 am   BACKBONE|DICT|INTERRES
   138   69  147 1    
   139   70   71 2    
   140   70   72 1    
   141   72   73 1    
   142   72   74 1    
   143   72  148 1    
   144   73  149 1    
   145   73  150 1    
   146   73  151 1    
   147   74   75 am   BACKBONE|DICT|INTERRES
   148   74  152 1    
   149   75   76 2    
   150   75   77 1    
   151   77   78 1    
   152   77   79 1    
   153   77  153 1    
   154   78  154 1    
   155   78  155 1    
   156   78  156 1    
   157   79   80 am   BACKBONE|DICT|INTERRES
   158   79  157 1    
   159   80   81 2    
@<TRIPOS>SUBSTRUCTURE
     1 UNK         1 GROUP             0       ****    0 ROOT    
