@<TRIPOS>MOLECULE
3R207
157   159    1
SMALL
USER_CHARGES


@<TRIPOS>ATOM
      1 CA        -51.9825  -23.7427    3.1698 C.3       0 UNK        -0.1975 
      2 C         -51.7224  -24.8645    4.1645 C.2       0 UNK         0.4852 
      3 O         -51.5127  -24.5939    5.3464 O.2       0 UNK        -0.5216 
      4 N         -51.7415  -26.1190    3.6945 N.am      1 UNK        -0.4461 
      5 CA        -51.4406  -27.3193    4.4818 C.3       1 UNK         0.0864 
      6 C6        -51.9511  -28.5843    3.7443 C.3       14 UNK        -0.0898 
      7 S7        -51.7953  -30.1614    4.6541 S.3       14 UNK        -0.2598 
      8 C8        -53.1646  -30.0837    5.8545 C.3       14 UNK         0.0286 
      9 C9        -52.6645  -29.6632    7.2295 C.ar      14 UNK        -0.0844 
     10 C10       -52.9006  -28.3733    7.7138 C.ar      14 UNK        -0.0881 
     11 C11       -52.3980  -27.9833    8.9582 C.ar      14 UNK        -0.0643 
     12 C12       -51.6752  -28.8951    9.7305 C.ar      14 UNK        -0.0930 
     13 C13       -51.4793  -30.2026    9.2811 C.ar      14 UNK        -0.0827 
     14 C14       -51.9648  -30.5770    8.0244 C.ar      14 UNK        -0.1249 
     15 C15       -50.7664  -31.2151   10.1669 C.3       14 UNK         0.0141 
     16 S16       -51.7183  -31.5904   11.6792 S.3       14 UNK        -0.2313 
     17 C17       -53.3213  -32.1185   10.9842 C.3       14 UNK        -0.0915 
     18 CA        -54.3875  -30.9924   11.0585 C.3       13 UNK         0.0968 
     19 C         -55.6033  -31.3253   10.1529 C.2       13 UNK         0.5732 
     20 N         -55.5263  -30.9875    8.8729 N.am      13 UNK        -0.7310 
     21 O         -56.5891  -31.9193   10.5873 O.2       13 UNK        -0.5035 
     22 N         -54.7700  -30.7097   12.4487 N.am      13 UNK        -0.4233 
     23 C         -55.4991  -29.6613   12.8509 C.2       13 UNK         0.4989 
     24 O         -55.8742  -28.7580   12.0993 O.2       13 UNK        -0.4996 
     25 CA        -55.9252  -29.6357   14.3343 C.3       12 UNK         0.0216 
     26 CB        -55.0577  -30.5245   15.2585 C.3       12 UNK        -0.1964 
     27 N         -56.0322  -28.2731   14.8730 N.am      12 UNK        -0.4276 
     28 C         -55.0375  -27.3898   15.0373 C.2       12 UNK         0.5020 
     29 O         -53.8622  -27.5975   14.7207 O.2       12 UNK        -0.5489 
     30 CA        -55.4149  -26.0585   15.7071 C.3       11 UNK         0.0294 
     31 CB        -55.9382  -26.2948   17.1420 C.3       11 UNK        -0.2019 
     32 N         -54.2195  -25.2203   15.7352 N.am      11 UNK        -0.4493 
     33 C         -54.1219  -23.9415   16.1172 C.2       11 UNK         0.4932 
     34 O         -55.0940  -23.2523   16.4308 O.2       11 UNK        -0.5029 
     35 CA        -52.7078  -23.3175   16.1426 C.3       10 UNK         0.0280 
     36 CB        -52.5364  -22.2842   17.2762 C.3       10 UNK        -0.1976 
     37 N         -51.6139  -24.3015   16.1599 N.am      10 UNK        -0.4242 
     38 C         -51.3571  -25.2167   17.1092 C.2       10 UNK         0.5072 
     39 O         -51.9897  -25.3176   18.1612 O.2       10 UNK        -0.5224 
     40 CA        -50.2274  -26.2187   16.8286 C.3       9 UNK         0.0343 
     41 CB        -50.7585  -27.4107   16.0168 C.3       9 UNK        -0.2003 
     42 N         -49.0814  -25.6272   16.1358 N.am      9 UNK        -0.4272 
     43 C         -48.1417  -24.8909   16.7451 C.2       9 UNK         0.4988 
     44 O         -48.1773  -24.5837   17.9375 O.2       9 UNK        -0.5108 
     45 CA        -46.9402  -24.4478   15.8938 C.3       8 UNK         0.0248 
     46 CB        -45.9996  -25.6334   15.6225 C.3       8 UNK        -0.2001 
     47 N         -47.3317  -23.8241   14.6293 N.am      8 UNK        -0.4140 
     48 C         -47.9243  -22.6252   14.5331 C.2       8 UNK         0.5028 
     49 O         -48.1756  -21.9027   15.4985 O.2       8 UNK        -0.5428 
     50 CA        -48.3076  -22.1459   13.1227 C.3       7 UNK         0.0264 
     51 CB        -47.0983  -21.5111   12.4172 C.3       7 UNK        -0.1988 
     52 N         -48.8624  -23.2054   12.2787 N.am      7 UNK        -0.4454 
     53 C         -49.9956  -23.8759   12.5371 C.2       7 UNK         0.5027 
     54 O         -50.7124  -23.6692   13.5154 O.2       7 UNK        -0.5083 
     55 CA        -50.3674  -24.9988   11.5517 C.3       6 UNK         0.0844 
     56 C56       -50.9878  -24.3780   10.2694 C.3       14 UNK        -0.0967 
     57 S57       -51.2302  -25.5354    8.8890 S.3       14 UNK        -0.2604 
     58 C58       -52.6037  -26.5679    9.4621 C.3       14 UNK         0.0134 
     59 N         -49.2287  -25.8976   11.3178 N.am      6 UNK        -0.4116 
     60 C         -48.5947  -26.5852   12.2837 C.2       5 UNK         0.5034 
     61 O         -48.9363  -26.5893   13.4654 O.2       5 UNK        -0.5045 
     62 CA        -47.3235  -27.3472   11.8907 C.3       5 UNK         0.0224 
     63 CB        -47.6641  -28.7424   11.3419 C.3       5 UNK        -0.1978 
     64 N         -46.5284  -26.5911   10.9230 N.am      5 UNK        -0.4737 
     65 C         -45.8275  -25.4891   11.2254 C.2       4 UNK         0.5027 
     66 O         -45.7284  -25.0368   12.3657 O.2       4 UNK        -0.5211 
     67 CA        -45.1577  -24.7442   10.0575 C.3       4 UNK         0.0297 
     68 CB        -43.7831  -25.3560    9.7458 C.3       4 UNK        -0.1993 
     69 N         -45.9764  -24.7294    8.8420 N.am      4 UNK        -0.4486 
     70 C         -47.1544  -24.0996    8.7337 C.2       3 UNK         0.4961 
     71 O         -47.6543  -23.4254    9.6354 O.2       3 UNK        -0.5105 
     72 CA        -47.9257  -24.2823    7.4130 C.3       3 UNK         0.0299 
     73 CB        -47.4615  -23.2503    6.3736 C.3       3 UNK        -0.1972 
     74 N         -47.8804  -25.6273    6.8179 N.am      3 UNK        -0.4305 
     75 C         -48.1108  -26.7864    7.4525 C.2       2 UNK         0.5006 
     76 O         -48.2354  -26.8895    8.6712 O.2       2 UNK        -0.5106 
     77 CA        -48.2865  -28.0305    6.5707 C.3       2 UNK         0.0296 
     78 CB        -48.1315  -29.3412    7.3648 C.3       2 UNK        -0.2002 
     79 N         -49.6235  -27.9925    5.9854 N.am      2 UNK        -0.4032 
     80 C         -49.9382  -27.3791    4.8385 C.2       1 UNK         0.5000 
     81 O         -49.1005  -26.8700    4.0864 O.2       1 UNK        -0.5238 
     82 H82       -52.8535  -23.1642    3.4764 H         1 UNK         0.0889 
     83 H83       -52.1639  -24.1221    2.1643 H         1 UNK         0.0889 
     84 H84       -51.1245  -23.0721    3.1297 H         1 UNK         0.0889 
     85 H85       -51.8877  -26.2707    2.7069 H         1 UNK         0.3028 
     86 H86       -51.9927  -27.2229    5.4155 H         1 UNK         0.0864 
     87 H87       -53.0012  -28.4572    3.4760 H         1 UNK         0.0720 
     88 H88       -51.4195  -28.7002    2.7979 H         1 UNK         0.0720 
     89 H89       -53.6217  -31.0717    5.9271 H         1 UNK         0.0814 
     90 H90       -53.9483  -29.4138    5.4977 H         1 UNK         0.0814 
     91 H91       -53.4592  -27.6627    7.1201 H         1 UNK         0.1469 
     92 H92       -51.2865  -28.5951   10.6943 H         1 UNK         0.1381 
     93 H93       -51.8008  -31.5827    7.6614 H         1 UNK         0.1206 
     94 H94       -50.5805  -32.1432    9.6243 H         1 UNK         0.0813 
     95 H95       -49.7885  -30.8236   10.4489 H         1 UNK         0.0813 
     96 H96       -53.6606  -33.0034   11.5254 H         1 UNK         0.0638 
     97 H97       -53.1623  -32.4447    9.9548 H         1 UNK         0.0638 
     98 H98       -53.9518  -30.0734   10.6666 H         1 UNK         0.0568 
     99 H99       -56.2963  -31.2055    8.2607 H         1 UNK         0.3450 
    100 H100      -54.7115  -30.5137    8.5140 H         1 UNK         0.3450 
    101 H101      -54.5113  -31.4091   13.1271 H         1 UNK         0.2987 
    102 H102      -56.9380  -30.0410   14.3542 H         1 UNK         0.0766 
    103 H103      -55.3664  -30.4266   16.2994 H         1 UNK         0.0798 
    104 H104      -54.0004  -30.2608   15.2031 H         1 UNK         0.0798 
    105 H105      -55.1515  -31.5804   15.0029 H         1 UNK         0.0798 
    106 H106      -56.9669  -27.9839   15.1256 H         1 UNK         0.3198 
    107 H107      -56.1792  -25.5662   15.1026 H         1 UNK         0.0843 
    108 H108      -55.1842  -26.7764   17.7663 H         1 UNK         0.0831 
    109 H109      -56.8229  -26.9320   17.1483 H         1 UNK         0.0831 
    110 H110      -56.2235  -25.3621   17.6278 H         1 UNK         0.0831 
    111 H111      -53.3872  -25.7191   15.4403 H         1 UNK         0.3133 
    112 H112      -52.6083  -22.7798   15.1992 H         1 UNK         0.0566 
    113 H113      -51.5374  -21.8479   17.2656 H         1 UNK         0.0814 
    114 H114      -53.2474  -21.4641   17.1703 H         1 UNK         0.0814 
    115 H115      -52.6990  -22.7287   18.2584 H         1 UNK         0.0814 
    116 H116      -51.0441  -24.2999   15.3172 H         1 UNK         0.3091 
    117 H117      -49.8840  -26.6039   17.7914 H         1 UNK         0.0702 
    118 H118      -49.9873  -28.1670   15.8706 H         1 UNK         0.0785 
    119 H119      -51.1139  -27.1036   15.0322 H         1 UNK         0.0785 
    120 H120      -51.5940  -27.8921   16.5272 H         1 UNK         0.0785 
    121 H121      -48.9752  -25.8604   15.1496 H         1 UNK         0.2998 
    122 H122      -46.3823  -23.7071   16.4709 H         1 UNK         0.0697 
    123 H123      -46.4802  -26.4014   15.0161 H         1 UNK         0.0825 
    124 H124      -45.6835  -26.1032   16.5549 H         1 UNK         0.0825 
    125 H125      -45.0982  -25.3120   15.1002 H         1 UNK         0.0825 
    126 H126      -47.0981  -24.3255   13.7786 H         1 UNK         0.3029 
    127 H127      -49.0780  -21.3800   13.2355 H         1 UNK         0.0897 
    128 H128      -47.3793  -21.0895   11.4519 H         1 UNK         0.0792 
    129 H129      -46.6768  -20.7019   13.0150 H         1 UNK         0.0792 
    130 H130      -46.3045  -22.2389   12.2442 H         1 UNK         0.0792 
    131 H131      -48.3552  -23.4179   11.4218 H         1 UNK         0.3086 
    132 H132      -51.1368  -25.6036   12.0352 H         1 UNK         0.0583 
    133 H133      -51.9474  -23.9125   10.5025 H         1 UNK         0.1020 
    134 H134      -50.3564  -23.5748    9.8845 H         1 UNK         0.1020 
    135 H135      -52.6639  -26.5666   10.5508 H         1 UNK         0.0694 
    136 H136      -53.5465  -26.1581    9.0971 H         1 UNK         0.0694 
    137 H137      -48.9087  -25.9967   10.3589 H         1 UNK         0.2989 
    138 H138      -46.7216  -27.4799   12.7923 H         1 UNK         0.1055 
    139 H139      -48.1620  -29.3440   12.1036 H         1 UNK         0.0806 
    140 H140      -46.7672  -29.2815   11.0371 H         1 UNK         0.0806 
    141 H141      -48.3352  -28.6939   10.4849 H         1 UNK         0.0806 
    142 H142      -46.6778  -26.8221    9.9469 H         1 UNK         0.3061 
    143 H143      -45.0067  -23.7090   10.3715 H         1 UNK         0.0734 
    144 H144      -43.2595  -24.7870    8.9773 H         1 UNK         0.0832 
    145 H145      -43.1487  -25.3580   10.6334 H         1 UNK         0.0832 
    146 H146      -43.8666  -26.3883    9.4036 H         1 UNK         0.0832 
    147 H147      -45.6480  -25.2696    8.0549 H         1 UNK         0.3156 
    148 H148      -48.9750  -24.0779    7.6307 H         1 UNK         0.0589 
    149 H149      -46.4350  -23.4325    6.0531 H         1 UNK         0.0808 
    150 H150      -48.0988  -23.2649    5.4890 H         1 UNK         0.0808 
    151 H151      -47.5021  -22.2390    6.7813 H         1 UNK         0.0808 
    152 H152      -47.8299  -25.6610    5.8082 H         1 UNK         0.3098 
    153 H153      -47.5249  -28.0146    5.7883 H         1 UNK         0.0720 
    154 H154      -48.2225  -30.2106    6.7136 H         1 UNK         0.0791 
    155 H155      -48.8862  -29.4326    8.1466 H         1 UNK         0.0791 
    156 H156      -47.1543  -29.3938    7.8462 H         1 UNK         0.0791 
    157 H157      -50.3676  -28.3741    6.5548 H         1 UNK         0.3028 
@<TRIPOS>BOND
     1    1    2 1    
     2    1   82 1    
     3    1   83 1    
     4    1   84 1    
     5    2    3 2    
     6    2    4 am   BACKBONE|DICT|INTERRES
     7    4    5 1    
     8    4   85 1    
     9    5    6 1    
    10    5   80 1    
    11    5   86 1    
    12    6    7 1    
    13    6   87 1    
    14    6   88 1    
    15    7    8 1    
    16    8    9 1    
    17    8   89 1    
    18    8   90 1    
    19    9   10 ar   
    20    9   14 ar   
    21   10   11 ar   
    22   10   91 1    
    23   11   12 ar   
    24   11   58 1    
    25   12   13 ar   
    26   12   92 1    
    27   13   14 ar   
    28   13   15 1    
    29   14   93 1    
    30   15   16 1    
    31   15   94 1    
    32   15   95 1    
    33   16   17 1    
    34   17   18 1    
    35   17   96 1    
    36   17   97 1    
    37   18   19 1    
    38   18   22 1    
    39   18   98 1    
    40   19   20 am   BACKBONE|DICT|INTERRES
    41   19   21 2    
    42   20   99 1    
    43   20  100 1    
    44   22   23 am   BACKBONE|DICT|INTERRES
    45   22  101 1    
    46   23   24 2    
    47   23   25 1    
    48   25   26 1    
    49   25   27 1    
    50   25  102 1    
    51   26  103 1    
    52   26  104 1    
    53   26  105 1    
    54   27   28 am   BACKBONE|DICT|INTERRES
    55   27  106 1    
    56   28   29 2    
    57   28   30 1    
    58   30   31 1    
    59   30   32 1    
    60   30  107 1    
    61   31  108 1    
    62   31  109 1    
    63   31  110 1    
    64   32   33 am   BACKBONE|DICT|INTERRES
    65   32  111 1    
    66   33   34 2    
    67   33   35 1    
    68   35   36 1    
    69   35   37 1    
    70   35  112 1    
    71   36  113 1    
    72   36  114 1    
    73   36  115 1    
    74   37   38 am   BACKBONE|DICT|INTERRES
    75   37  116 1    
    76   38   39 2    
    77   38   40 1    
    78   40   41 1    
    79   40   42 1    
    80   40  117 1    
    81   41  118 1    
    82   41  119 1    
    83   41  120 1    
    84   42   43 am   BACKBONE|DICT|INTERRES
    85   42  121 1    
    86   43   44 2    
    87   43   45 1    
    88   45   46 1    
    89   45   47 1    
    90   45  122 1    
    91   46  123 1    
    92   46  124 1    
    93   46  125 1    
    94   47   48 am   BACKBONE|DICT|INTERRES
    95   47  126 1    
    96   48   49 2    
    97   48   50 1    
    98   50   51 1    
    99   50   52 1    
   100   50  127 1    
   101   51  128 1    
   102   51  129 1    
   103   51  130 1    
   104   52   53 am   BACKBONE|DICT|INTERRES
   105   52  131 1    
   106   53   54 2    
   107   53   55 1    
   108   55   56 1    
   109   55   59 1    
   110   55  132 1    
   111   56   57 1    
   112   56  133 1    
   113   56  134 1    
   114   57   58 1    
   115   58  135 1    
   116   58  136 1    
   117   59   60 am   BACKBONE|DICT|INTERRES
   118   59  137 1    
   119   60   61 2    
   120   60   62 1    
   121   62   63 1    
   122   62   64 1    
   123   62  138 1    
   124   63  139 1    
   125   63  140 1    
   126   63  141 1    
   127   64   65 am   BACKBONE|DICT|INTERRES
   128   64  142 1    
   129   65   66 2    
   130   65   67 1    
   131   67   68 1    
   132   67   69 1    
   133   67  143 1    
   134   68  144 1    
   135   68  145 1    
   136   68  146 1    
   137   69   70 am   BACKBONE|DICT|INTERRES
   138   69  147 1    
   139   70   71 2    
   140   70   72 1    
   141   72   73 1    
   142   72   74 1    
   143   72  148 1    
   144   73  149 1    
   145   73  150 1    
   146   73  151 1    
   147   74   75 am   BACKBONE|DICT|INTERRES
   148   74  152 1    
   149   75   76 2    
   150   75   77 1    
   151   77   78 1    
   152   77   79 1    
   153   77  153 1    
   154   78  154 1    
   155   78  155 1    
   156   78  156 1    
   157   79   80 am   BACKBONE|DICT|INTERRES
   158   79  157 1    
   159   80   81 2    
@<TRIPOS>SUBSTRUCTURE
     1 UNK         1 GROUP             0       ****    0 ROOT    
