@<TRIPOS>MOLECULE
3R207
157   159    1
SMALL
USER_CHARGES


@<TRIPOS>ATOM
      1 CA        -48.2756  -27.7312    5.4136 C.3       0 UNK        -0.1975 
      2 C         -49.2305  -26.5499    5.3528 C.2       0 UNK         0.4852 
      3 O         -48.9874  -25.6005    4.6069 O.2       0 UNK        -0.5216 
      4 N         -50.3147  -26.5986    6.1391 N.am      1 UNK        -0.4461 
      5 CA        -51.2596  -25.4913    6.3117 C.3       1 UNK         0.0864 
      6 C6        -52.6055  -25.9349    6.9402 C.3       14 UNK        -0.0898 
      7 S7        -53.5289  -27.0600    5.8376 S.3       14 UNK        -0.2598 
      8 C8        -54.3494  -28.1951    7.0172 C.3       14 UNK         0.0286 
      9 C9        -53.4167  -29.0464    7.8820 C.ar      14 UNK        -0.0844 
     10 C10       -52.0935  -29.3076    7.5098 C.ar      14 UNK        -0.0881 
     11 C11       -51.2506  -30.0529    8.3356 C.ar      14 UNK        -0.0643 
     12 C12       -51.7562  -30.6124    9.5100 C.ar      14 UNK        -0.0930 
     13 C13       -53.0857  -30.3970    9.8785 C.ar      14 UNK        -0.0827 
     14 C14       -53.9052  -29.5996    9.0716 C.ar      14 UNK        -0.1249 
     15 C15       -53.6334  -31.0515   11.1355 C.3       14 UNK         0.0141 
     16 S16       -53.0812  -30.1910   12.6383 S.3       14 UNK        -0.2313 
     17 C17       -53.6832  -31.3350   13.9320 C.3       14 UNK        -0.0915 
     18 CA        -55.2355  -31.4641   14.0076 C.3       13 UNK         0.0968 
     19 C         -55.7089  -32.4783   15.0934 C.2       13 UNK         0.5732 
     20 N         -56.8748  -32.2956   15.7017 N.am      13 UNK        -0.7310 
     21 O         -55.0314  -33.4672   15.3648 O.2       13 UNK        -0.5035 
     22 N         -55.9095  -30.1553   14.0261 N.am      13 UNK        -0.4233 
     23 C         -55.8465  -29.2439   15.0032 C.2       13 UNK         0.4989 
     24 O         -55.3055  -29.4267   16.0951 O.2       13 UNK        -0.4996 
     25 CA        -56.4500  -27.8758   14.6543 C.3       12 UNK         0.0216 
     26 CB        -56.6967  -26.9942   15.8927 C.3       12 UNK        -0.1964 
     27 N         -55.5516  -27.1828   13.7295 N.am      12 UNK        -0.4276 
     28 C         -55.5464  -27.3482   12.3972 C.2       12 UNK         0.5020 
     29 O         -56.3401  -28.0969   11.8218 O.2       12 UNK        -0.5489 
     30 CA        -54.4811  -26.6034   11.5574 C.3       11 UNK         0.0294 
     31 CB        -55.0815  -25.9955   10.2729 C.3       11 UNK        -0.2019 
     32 N         -53.6978  -25.5997   12.2896 N.am      11 UNK        -0.4493 
     33 C         -54.1490  -24.4984   12.9112 C.2       11 UNK         0.4932 
     34 O         -55.3174  -24.1112   12.8628 O.2       11 UNK        -0.5029 
     35 CA        -53.1254  -23.7348   13.7764 C.3       10 UNK         0.0280 
     36 CB        -53.7943  -22.8392   14.8398 C.3       10 UNK        -0.1976 
     37 N         -52.1264  -24.6099   14.4063 N.am      10 UNK        -0.4242 
     38 C         -52.3491  -25.6729   15.1967 C.2       10 UNK         0.5072 
     39 O         -53.4756  -26.0441   15.5238 O.2       10 UNK        -0.5224 
     40 CA        -51.1362  -26.5005   15.6678 C.3       9 UNK         0.0343 
     41 CB        -51.1920  -27.9116   15.0569 C.3       9 UNK        -0.2003 
     42 N         -49.8450  -25.8968   15.3329 N.am      9 UNK        -0.4272 
     43 C         -49.2857  -24.8590   15.9696 C.2       9 UNK         0.4988 
     44 O         -49.7452  -24.3516   16.9928 O.2       9 UNK        -0.5108 
     45 CA        -48.0310  -24.2484   15.3158 C.3       8 UNK         0.0248 
     46 CB        -46.7648  -25.0016   15.7520 C.3       8 UNK        -0.2001 
     47 N         -48.1176  -24.2039   13.8487 N.am      8 UNK        -0.4140 
     48 C         -49.0494  -23.5101   13.1763 C.2       8 UNK         0.5028 
     49 O         -49.8981  -22.8055   13.7202 O.2       8 UNK        -0.5428 
     50 CA        -49.0702  -23.6386   11.6491 C.3       7 UNK         0.0264 
     51 CB        -48.0620  -22.6571   11.0354 C.3       7 UNK        -0.1988 
     52 N         -48.8161  -25.0087   11.1951 N.am      7 UNK        -0.4454 
     53 C         -49.6759  -26.0315   11.3463 C.2       7 UNK         0.5027 
     54 O         -50.8118  -25.9091   11.8113 O.2       7 UNK        -0.5083 
     55 CA        -49.1453  -27.4433   11.0111 C.3       6 UNK         0.0844 
     56 C56       -49.3092  -27.8092    9.5131 C.3       14 UNK        -0.0967 
     57 S57       -48.6451  -29.4869    9.1698 S.3       14 UNK        -0.2604 
     58 C58       -49.7897  -30.2316    7.9598 C.3       14 UNK         0.0134 
     59 N         -47.7620  -27.5992   11.4653 N.am      6 UNK        -0.4116 
     60 C         -47.3675  -27.6228   12.7439 C.2       5 UNK         0.5034 
     61 O         -48.1369  -27.5371   13.6994 O.2       5 UNK        -0.5045 
     62 CA        -45.8551  -27.7271   13.0044 C.3       5 UNK         0.0224 
     63 CB        -45.4554  -29.1897   13.2534 C.3       5 UNK        -0.1978 
     64 N         -45.0353  -27.1772   11.9209 N.am      5 UNK        -0.4737 
     65 C         -45.0190  -25.8918   11.5410 C.2       4 UNK         0.5027 
     66 O         -45.6817  -25.0155   12.1006 O.2       4 UNK        -0.5211 
     67 CA        -44.1163  -25.5303   10.3399 C.3       4 UNK         0.0297 
     68 CB        -43.5830  -26.7620    9.5710 C.3       4 UNK        -0.1993 
     69 N         -44.7283  -24.5973    9.3839 N.am      4 UNK        -0.4486 
     70 C         -45.9246  -24.7024    8.7885 C.2       3 UNK         0.4961 
     71 O         -46.7737  -25.5518    9.0660 O.2       3 UNK        -0.5105 
     72 CA        -46.1909  -23.7134    7.6479 C.3       3 UNK         0.0299 
     73 CB        -45.7252  -24.3024    6.3040 C.3       3 UNK        -0.1972 
     74 N         -47.6157  -23.4030    7.5861 N.am      3 UNK        -0.4305 
     75 C         -48.1435  -22.2772    7.0898 C.2       2 UNK         0.5006 
     76 O         -47.4723  -21.3962    6.5486 O.2       2 UNK        -0.5106 
     77 CA        -49.6727  -22.1023    7.2259 C.3       2 UNK         0.0296 
     78 CB        -50.1767  -20.7760    6.6252 C.3       2 UNK        -0.2002 
     79 N         -50.4073  -23.2090    6.6107 N.am      2 UNK        -0.4032 
     80 C         -50.5761  -24.4135    7.1681 C.2       1 UNK         0.5000 
     81 O         -50.1703  -24.7059    8.2944 O.2       1 UNK        -0.5238 
     82 H82       -48.0045  -27.9569    6.4447 H         1 UNK         0.0889 
     83 H83       -47.3573  -27.5107    4.8695 H         1 UNK         0.0889 
     84 H84       -48.7304  -28.6140    4.9652 H         1 UNK         0.0889 
     85 H85       -50.4475  -27.3815    6.7590 H         1 UNK         0.3028 
     86 H86       -51.4746  -25.0693    5.3271 H         1 UNK         0.0864 
     87 H87       -53.2428  -25.0694    7.1315 H         1 UNK         0.0720 
     88 H88       -52.4401  -26.4097    7.9092 H         1 UNK         0.0720 
     89 H89       -55.0082  -27.6040    7.6524 H         1 UNK         0.0814 
     90 H90       -54.9949  -28.8671    6.4506 H         1 UNK         0.0814 
     91 H91       -51.7091  -28.9223    6.5781 H         1 UNK         0.1469 
     92 H92       -51.1103  -31.2052   10.1435 H         1 UNK         0.1381 
     93 H93       -54.9312  -29.4203    9.3648 H         1 UNK         0.1206 
     94 H94       -54.7232  -31.0615   11.1029 H         1 UNK         0.0813 
     95 H95       -53.3126  -32.0935   11.1725 H         1 UNK         0.0813 
     96 H96       -53.2890  -30.9880   14.8885 H         1 UNK         0.0638 
     97 H97       -53.2262  -32.3099   13.7540 H         1 UNK         0.0638 
     98 H98       -55.5617  -31.9295   13.0785 H         1 UNK         0.0568 
     99 H99       -57.4438  -31.4935   15.4844 H         1 UNK         0.3450 
    100 H100      -57.1802  -32.9611   16.3940 H         1 UNK         0.3450 
    101 H101      -56.3396  -29.8701   13.1547 H         1 UNK         0.2987 
    102 H102      -57.4162  -28.0411   14.1725 H         1 UNK         0.0766 
    103 H103      -57.4052  -27.4702   16.5716 H         1 UNK         0.0798 
    104 H104      -57.1134  -26.0265   15.6129 H         1 UNK         0.0798 
    105 H105      -55.7817  -26.8124   16.4566 H         1 UNK         0.0798 
    106 H106      -54.8272  -26.6151   14.1610 H         1 UNK         0.3198 
    107 H107      -53.7659  -27.3691   11.2521 H         1 UNK         0.0843 
    108 H108      -55.6115  -26.7512    9.6942 H         1 UNK         0.0831 
    109 H109      -55.7979  -25.2040   10.4923 H         1 UNK         0.0831 
    110 H110      -54.3047  -25.5802    9.6312 H         1 UNK         0.0831 
    111 H111      -52.6989  -25.7898   12.3458 H         1 UNK         0.3133 
    112 H112      -52.5763  -23.0867   13.0924 H         1 UNK         0.0566 
    113 H113      -54.4040  -23.4215   15.5316 H         1 UNK         0.0814 
    114 H114      -54.4452  -22.0971   14.3760 H         1 UNK         0.0814 
    115 H115      -53.0505  -22.2960   15.4229 H         1 UNK         0.0814 
    116 H116      -51.1654  -24.3632   14.1997 H         1 UNK         0.3091 
    117 H117      -51.2067  -26.5930   16.7533 H         1 UNK         0.0702 
    118 H118      -50.3742  -28.5345   15.4194 H         1 UNK         0.0785 
    119 H119      -51.1299  -27.8806   13.9681 H         1 UNK         0.0785 
    120 H120      -52.1239  -28.4176   15.3150 H         1 UNK         0.0785 
    121 H121      -49.3442  -26.3103   14.5503 H         1 UNK         0.2998 
    122 H122      -47.9449  -23.2167   15.6633 H         1 UNK         0.0697 
    123 H123      -45.8769  -24.6257   15.2429 H         1 UNK         0.0825 
    124 H124      -46.8427  -26.0703   15.5572 H         1 UNK         0.0825 
    125 H125      -46.5991  -24.8847   16.8237 H         1 UNK         0.0825 
    126 H126      -47.4151  -24.7094   13.3197 H         1 UNK         0.3029 
    127 H127      -50.0684  -23.3537   11.3083 H         1 UNK         0.0897 
    128 H128      -47.0300  -22.9558   11.2171 H         1 UNK         0.0792 
    129 H129      -48.1880  -21.6553   11.4488 H         1 UNK         0.0792 
    130 H130      -48.2079  -22.5707    9.9652 H         1 UNK         0.0792 
    131 H131      -47.9133  -25.1978   10.7715 H         1 UNK         0.3086 
    132 H132      -49.7514  -28.1491   11.5841 H         1 UNK         0.0583 
    133 H133      -50.3623  -27.7465    9.2389 H         1 UNK         0.1020 
    134 H134      -48.7915  -27.0929    8.8747 H         1 UNK         0.1020 
    135 H135      -49.5868  -29.8101    6.9759 H         1 UNK         0.0694 
    136 H136      -49.5708  -31.2974    7.8818 H         1 UNK         0.0694 
    137 H137      -47.0615  -27.6519   10.7400 H         1 UNK         0.2989 
    138 H138      -45.6353  -27.1545   13.9065 H         1 UNK         0.1055 
    139 H139      -46.0320  -29.6161   14.0757 H         1 UNK         0.0806 
    140 H140      -44.4021  -29.2746   13.5217 H         1 UNK         0.0806 
    141 H141      -45.6315  -29.8128   12.3754 H         1 UNK         0.0806 
    142 H142      -44.4576  -27.8313   11.4123 H         1 UNK         0.3061 
    143 H143      -43.2574  -25.0088   10.7646 H         1 UNK         0.0734 
    144 H144      -44.3929  -27.3658    9.1586 H         1 UNK         0.0832 
    145 H145      -42.9481  -26.4577    8.7386 H         1 UNK         0.0832 
    146 H146      -42.9717  -27.4029   10.2074 H         1 UNK         0.0832 
    147 H147      -44.1362  -23.8267    9.1064 H         1 UNK         0.3156 
    148 H148      -45.6364  -22.7949    7.8526 H         1 UNK         0.0589 
    149 H149      -45.8669  -23.5939    5.4878 H         1 UNK         0.0808 
    150 H150      -46.2743  -25.2114    6.0548 H         1 UNK         0.0808 
    151 H151      -44.6650  -24.5570    6.3315 H         1 UNK         0.0808 
    152 H152      -48.2296  -24.0831    8.0293 H         1 UNK         0.3098 
    153 H153      -49.9005  -22.0823    8.2937 H         1 UNK         0.0720 
    154 H154      -49.6854  -19.9224    7.0944 H         1 UNK         0.0791 
    155 H155      -51.2489  -20.6529    6.7788 H         1 UNK         0.0791 
    156 H156      -49.9816  -20.7168    5.5536 H         1 UNK         0.0791 
    157 H157      -50.7144  -23.0670    5.6589 H         1 UNK         0.3028 
@<TRIPOS>BOND
     1    1    2 1    
     2    1   82 1    
     3    1   83 1    
     4    1   84 1    
     5    2    3 2    
     6    2    4 am   BACKBONE|DICT|INTERRES
     7    4    5 1    
     8    4   85 1    
     9    5    6 1    
    10    5   80 1    
    11    5   86 1    
    12    6    7 1    
    13    6   87 1    
    14    6   88 1    
    15    7    8 1    
    16    8    9 1    
    17    8   89 1    
    18    8   90 1    
    19    9   10 ar   
    20    9   14 ar   
    21   10   11 ar   
    22   10   91 1    
    23   11   12 ar   
    24   11   58 1    
    25   12   13 ar   
    26   12   92 1    
    27   13   14 ar   
    28   13   15 1    
    29   14   93 1    
    30   15   16 1    
    31   15   94 1    
    32   15   95 1    
    33   16   17 1    
    34   17   18 1    
    35   17   96 1    
    36   17   97 1    
    37   18   19 1    
    38   18   22 1    
    39   18   98 1    
    40   19   20 am   BACKBONE|DICT|INTERRES
    41   19   21 2    
    42   20   99 1    
    43   20  100 1    
    44   22   23 am   BACKBONE|DICT|INTERRES
    45   22  101 1    
    46   23   24 2    
    47   23   25 1    
    48   25   26 1    
    49   25   27 1    
    50   25  102 1    
    51   26  103 1    
    52   26  104 1    
    53   26  105 1    
    54   27   28 am   BACKBONE|DICT|INTERRES
    55   27  106 1    
    56   28   29 2    
    57   28   30 1    
    58   30   31 1    
    59   30   32 1    
    60   30  107 1    
    61   31  108 1    
    62   31  109 1    
    63   31  110 1    
    64   32   33 am   BACKBONE|DICT|INTERRES
    65   32  111 1    
    66   33   34 2    
    67   33   35 1    
    68   35   36 1    
    69   35   37 1    
    70   35  112 1    
    71   36  113 1    
    72   36  114 1    
    73   36  115 1    
    74   37   38 am   BACKBONE|DICT|INTERRES
    75   37  116 1    
    76   38   39 2    
    77   38   40 1    
    78   40   41 1    
    79   40   42 1    
    80   40  117 1    
    81   41  118 1    
    82   41  119 1    
    83   41  120 1    
    84   42   43 am   BACKBONE|DICT|INTERRES
    85   42  121 1    
    86   43   44 2    
    87   43   45 1    
    88   45   46 1    
    89   45   47 1    
    90   45  122 1    
    91   46  123 1    
    92   46  124 1    
    93   46  125 1    
    94   47   48 am   BACKBONE|DICT|INTERRES
    95   47  126 1    
    96   48   49 2    
    97   48   50 1    
    98   50   51 1    
    99   50   52 1    
   100   50  127 1    
   101   51  128 1    
   102   51  129 1    
   103   51  130 1    
   104   52   53 am   BACKBONE|DICT|INTERRES
   105   52  131 1    
   106   53   54 2    
   107   53   55 1    
   108   55   56 1    
   109   55   59 1    
   110   55  132 1    
   111   56   57 1    
   112   56  133 1    
   113   56  134 1    
   114   57   58 1    
   115   58  135 1    
   116   58  136 1    
   117   59   60 am   BACKBONE|DICT|INTERRES
   118   59  137 1    
   119   60   61 2    
   120   60   62 1    
   121   62   63 1    
   122   62   64 1    
   123   62  138 1    
   124   63  139 1    
   125   63  140 1    
   126   63  141 1    
   127   64   65 am   BACKBONE|DICT|INTERRES
   128   64  142 1    
   129   65   66 2    
   130   65   67 1    
   131   67   68 1    
   132   67   69 1    
   133   67  143 1    
   134   68  144 1    
   135   68  145 1    
   136   68  146 1    
   137   69   70 am   BACKBONE|DICT|INTERRES
   138   69  147 1    
   139   70   71 2    
   140   70   72 1    
   141   72   73 1    
   142   72   74 1    
   143   72  148 1    
   144   73  149 1    
   145   73  150 1    
   146   73  151 1    
   147   74   75 am   BACKBONE|DICT|INTERRES
   148   74  152 1    
   149   75   76 2    
   150   75   77 1    
   151   77   78 1    
   152   77   79 1    
   153   77  153 1    
   154   78  154 1    
   155   78  155 1    
   156   78  156 1    
   157   79   80 am   BACKBONE|DICT|INTERRES
   158   79  157 1    
   159   80   81 2    
@<TRIPOS>SUBSTRUCTURE
     1 UNK         1 GROUP             0       ****    0 ROOT    
