@<TRIPOS>MOLECULE
3R207
157   159    1
SMALL
USER_CHARGES


@<TRIPOS>ATOM
      1 CA        -47.6802  -31.4579    1.5140 C.3       0 UNK        -0.1975 
      2 C         -47.5001  -30.7361    2.8419 C.2       0 UNK         0.4852 
      3 O         -46.3980  -30.7451    3.3922 O.2       0 UNK        -0.5216 
      4 N         -48.5776  -30.1226    3.3539 N.am      1 UNK        -0.4461 
      5 CA        -48.6301  -29.3251    4.5875 C.3       1 UNK         0.0864 
      6 C6        -48.2113  -30.1425    5.8463 C.3       14 UNK        -0.0898 
      7 S7        -48.9458  -29.5265    7.3963 S.3       14 UNK        -0.2598 
      8 C8        -50.5666  -30.3442    7.3796 C.3       14 UNK         0.0286 
      9 C9        -51.4360  -29.7950    8.4968 C.ar      14 UNK        -0.0844 
     10 C10       -52.1183  -28.5891    8.3234 C.ar      14 UNK        -0.0881 
     11 C11       -52.8969  -28.0601    9.3555 C.ar      14 UNK        -0.0643 
     12 C12       -52.9830  -28.7470   10.5716 C.ar      14 UNK        -0.0930 
     13 C13       -52.3265  -29.9736   10.7513 C.ar      14 UNK        -0.0827 
     14 C14       -51.5496  -30.4826    9.7066 C.ar      14 UNK        -0.1249 
     15 C15       -52.3919  -30.7848   12.0471 C.3       14 UNK         0.0141 
     16 S16       -53.6420  -30.2678   13.2711 S.3       14 UNK        -0.2313 
     17 C17       -55.2220  -30.7903   12.5116 C.3       14 UNK        -0.0915 
     18 CA        -56.1519  -29.5994   12.1246 C.3       13 UNK         0.0968 
     19 C         -57.5233  -30.0644   11.5490 C.2       13 UNK         0.5732 
     20 N         -58.6057  -29.3210   11.7456 N.am      13 UNK        -0.7310 
     21 O         -57.6066  -31.0950   10.8847 O.2       13 UNK        -0.5035 
     22 N         -56.2282  -28.5674   13.1749 N.am      13 UNK        -0.4233 
     23 C         -56.7223  -28.7183   14.4110 C.2       13 UNK         0.4989 
     24 O         -57.3184  -29.7283   14.7886 O.2       13 UNK        -0.4996 
     25 CA        -56.4901  -27.5667   15.4126 C.3       12 UNK         0.0216 
     26 CB        -56.0295  -28.1024   16.7805 C.3       12 UNK        -0.1964 
     27 N         -55.5128  -26.5712   14.9555 N.am      12 UNK        -0.4276 
     28 C         -55.7824  -25.5415   14.1401 C.2       12 UNK         0.5020 
     29 O         -56.8902  -25.3614   13.6322 O.2       12 UNK        -0.5489 
     30 CA        -54.6245  -24.5754   13.8090 C.3       11 UNK         0.0294 
     31 CB        -55.1105  -23.1473   13.4862 C.3       11 UNK        -0.2019 
     32 N         -53.5569  -24.5486   14.8152 N.am      11 UNK        -0.4493 
     33 C         -53.6670  -24.2187   16.1116 C.2       11 UNK         0.4932 
     34 O         -54.7120  -23.8200   16.6283 O.2       11 UNK        -0.5029 
     35 CA        -52.4031  -24.3680   16.9820 C.3       10 UNK         0.0280 
     36 CB        -52.7372  -24.6682   18.4590 C.3       10 UNK        -0.1976 
     37 N         -51.4272  -25.3393   16.4695 N.am      10 UNK        -0.4242 
     38 C         -51.6041  -26.6568   16.2712 C.2       10 UNK         0.5072 
     39 O         -52.6825  -27.2255   16.4532 O.2       10 UNK        -0.5224 
     40 CA        -50.3987  -27.4834   15.7689 C.3       9 UNK         0.0343 
     41 CB        -50.8002  -28.4147   14.6138 C.3       9 UNK        -0.2003 
     42 N         -49.2695  -26.6598   15.3326 N.am      9 UNK        -0.4272 
     43 C         -48.3140  -26.1621   16.1288 C.2       9 UNK         0.4988 
     44 O         -48.2201  -26.4172   17.3294 O.2       9 UNK        -0.5108 
     45 CA        -47.3280  -25.1661   15.4891 C.3       8 UNK         0.0248 
     46 CB        -46.0979  -25.9010   14.9341 C.3       8 UNK        -0.2001 
     47 N         -47.9373  -24.3455   14.4342 N.am      8 UNK        -0.4140 
     48 C         -48.9552  -23.4932   14.6305 C.2       8 UNK         0.5028 
     49 O         -49.4419  -23.2606   15.7369 O.2       8 UNK        -0.5428 
     50 CA        -49.5795  -22.8344   13.3898 C.3       7 UNK         0.0264 
     51 CB        -48.7546  -21.6175   12.9438 C.3       7 UNK        -0.1988 
     52 N         -49.7489  -23.7637   12.2692 N.am      7 UNK        -0.4454 
     53 C         -50.5385  -24.8490   12.2864 C.2       7 UNK         0.5027 
     54 O         -51.2379  -25.1626   13.2509 O.2       7 UNK        -0.5083 
     55 CA        -50.5048  -25.7656   11.0413 C.3       6 UNK         0.0844 
     56 C56       -51.3921  -25.2286    9.8921 C.3       14 UNK        -0.0967 
     57 S57       -53.1694  -25.4236   10.2594 S.3       14 UNK        -0.2604 
     58 C58       -53.6681  -26.7642    9.1339 C.3       14 UNK         0.0134 
     59 N         -49.1341  -26.0251   10.5956 N.am      6 UNK        -0.4116 
     60 C         -48.2034  -26.6499   11.3315 C.2       5 UNK         0.5034 
     61 O         -48.4177  -27.1453   12.4376 O.2       5 UNK        -0.5045 
     62 CA        -46.7738  -26.6636   10.7685 C.3       5 UNK         0.0224 
     63 CB        -46.5828  -27.7984    9.7513 C.3       5 UNK        -0.1978 
     64 N         -46.4135  -25.3809   10.1593 N.am      5 UNK        -0.4737 
     65 C         -46.2218  -24.2495   10.8522 C.2       4 UNK         0.5027 
     66 O         -46.2819  -24.1823   12.0787 O.2       4 UNK        -0.5211 
     67 CA        -45.9608  -22.9714   10.0385 C.3       4 UNK         0.0297 
     68 CB        -44.4728  -22.8601    9.6713 C.3       4 UNK        -0.1993 
     69 N         -46.7755  -22.8957    8.8232 N.am      4 UNK        -0.4486 
     70 C         -48.1135  -22.8050    8.8080 C.2       3 UNK         0.4961 
     71 O         -48.8084  -22.7375    9.8198 O.2       3 UNK        -0.5105 
     72 CA        -48.7964  -22.8525    7.4318 C.3       3 UNK         0.0299 
     73 CB        -48.8707  -21.4467    6.8158 C.3       3 UNK        -0.1972 
     74 N         -48.1377  -23.7708    6.4975 N.am      3 UNK        -0.4305 
     75 C         -48.0380  -25.0936    6.6828 C.2       2 UNK         0.5006 
     76 O         -48.4901  -25.6882    7.6659 O.2       2 UNK        -0.5106 
     77 CA        -47.2563  -25.8703    5.6204 C.3       2 UNK         0.0296 
     78 CB        -45.7615  -25.9328    5.9804 C.3       2 UNK        -0.2002 
     79 N         -47.7985  -27.2211    5.5436 N.am      2 UNK        -0.4032 
     80 C         -47.9033  -27.9641    4.4374 C.2       1 UNK         0.5000 
     81 O         -47.5002  -27.5884    3.3318 O.2       1 UNK        -0.5238 
     82 H82       -48.7023  -31.3834    1.1432 H         1 UNK         0.0889 
     83 H83       -47.4364  -32.5141    1.6251 H         1 UNK         0.0889 
     84 H84       -47.0155  -31.0315    0.7631 H         1 UNK         0.0889 
     85 H85       -49.4378  -30.1375    2.8237 H         1 UNK         0.3028 
     86 H86       -49.6852  -29.0694    4.6937 H         1 UNK         0.0864 
     87 H87       -48.5084  -31.1866    5.7347 H         1 UNK         0.0720 
     88 H88       -47.1254  -30.1573    5.9567 H         1 UNK         0.0720 
     89 H89       -51.0568  -30.1844    6.4183 H         1 UNK         0.0814 
     90 H90       -50.4333  -31.4220    7.4862 H         1 UNK         0.0814 
     91 H91       -52.0352  -28.0602    7.3837 H         1 UNK         0.1469 
     92 H92       -53.5620  -28.3118   11.3717 H         1 UNK         0.1381 
     93 H93       -51.0207  -31.4169    9.8392 H         1 UNK         0.1206 
     94 H94       -51.4143  -30.7281   12.5275 H         1 UNK         0.0813 
     95 H95       -52.5556  -31.8375   11.8117 H         1 UNK         0.0813 
     96 H96       -55.7266  -31.4452   13.2237 H         1 UNK         0.0638 
     97 H97       -55.0096  -31.4042   11.6347 H         1 UNK         0.0638 
     98 H98       -55.6874  -29.0978   11.2775 H         1 UNK         0.0568 
     99 H99       -58.5493  -28.4706   12.2829 H         1 UNK         0.3450 
    100 H100      -59.4878  -29.6211   11.3621 H         1 UNK         0.3450 
    101 H101      -55.7953  -27.6848   12.9523 H         1 UNK         0.2987 
    102 H102      -57.4529  -27.0715   15.5547 H         1 UNK         0.0766 
    103 H103      -55.8718  -27.2916   17.4923 H         1 UNK         0.0798 
    104 H104      -55.0957  -28.6604   16.6977 H         1 UNK         0.0798 
    105 H105      -56.7732  -28.7718   17.2149 H         1 UNK         0.0798 
    106 H106      -54.5720  -26.6644   15.3240 H         1 UNK         0.3198 
    107 H107      -54.1618  -24.9745   12.9077 H         1 UNK         0.0843 
    108 H108      -54.2767  -22.4949   13.2268 H         1 UNK         0.0831 
    109 H109      -55.6403  -22.7001   14.3277 H         1 UNK         0.0831 
    110 H110      -55.7934  -23.1490   12.6358 H         1 UNK         0.0831 
    111 H111      -52.6446  -24.8472   14.4719 H         1 UNK         0.3133 
    112 H112      -51.9049  -23.3985   16.9497 H         1 UNK         0.0566 
    113 H113      -51.8325  -24.7554   19.0606 H         1 UNK         0.0814 
    114 H114      -53.3383  -23.8702   18.8965 H         1 UNK         0.0814 
    115 H115      -53.3019  -25.5952   18.5648 H         1 UNK         0.0814 
    116 H116      -50.5261  -24.9376   16.2324 H         1 UNK         0.3091 
    117 H117      -50.0746  -28.1091   16.6027 H         1 UNK         0.0702 
    118 H118      -51.5406  -29.1411   14.9480 H         1 UNK         0.0785 
    119 H119      -49.9456  -28.9767   14.2368 H         1 UNK         0.0785 
    120 H120      -51.2329  -27.8636   13.7779 H         1 UNK         0.0785 
    121 H121      -49.2420  -26.4300   14.3454 H         1 UNK         0.2998 
    122 H122      -46.9911  -24.4881   16.2759 H         1 UNK         0.0697 
    123 H123      -46.3660  -26.5871   14.1307 H         1 UNK         0.0825 
    124 H124      -45.6087  -26.4868   15.7135 H         1 UNK         0.0825 
    125 H125      -45.3595  -25.2005   14.5437 H         1 UNK         0.0825 
    126 H126      -47.5371  -24.4266   13.5022 H         1 UNK         0.3029 
    127 H127      -50.5742  -22.4829   13.6730 H         1 UNK         0.0897 
    128 H128      -49.2322  -21.0980   12.1128 H         1 UNK         0.0792 
    129 H129      -48.6480  -20.8988   13.7575 H         1 UNK         0.0792 
    130 H130      -47.7516  -21.9032   12.6269 H         1 UNK         0.0792 
    131 H131      -49.2554  -23.5304   11.4089 H         1 UNK         0.3086 
    132 H132      -50.9058  -26.7346   11.3472 H         1 UNK         0.0583 
    133 H133      -51.1832  -24.1766    9.6892 H         1 UNK         0.1020 
    134 H134      -51.1649  -25.7567    8.9644 H         1 UNK         0.1020 
    135 H135      -54.7317  -26.9604    9.2761 H         1 UNK         0.0694 
    136 H136      -53.5583  -26.4155    8.1058 H         1 UNK         0.0694 
    137 H137      -48.8766  -25.6897    9.6733 H         1 UNK         0.2989 
    138 H138      -46.0958  -26.8440   11.6058 H         1 UNK         0.1055 
    139 H139      -46.8675  -28.7603   10.1801 H         1 UNK         0.0806 
    140 H140      -45.5422  -27.8788    9.4371 H         1 UNK         0.0806 
    141 H141      -47.1900  -27.6488    8.8598 H         1 UNK         0.0806 
    142 H142      -46.3945  -25.3409    9.1511 H         1 UNK         0.3061 
    143 H143      -46.2211  -22.1184   10.6687 H         1 UNK         0.0734 
    144 H144      -44.2572  -21.9178    9.1674 H         1 UNK         0.0832 
    145 H145      -43.8486  -22.8966   10.5654 H         1 UNK         0.0832 
    146 H146      -44.1527  -23.6728    9.0180 H         1 UNK         0.0832 
    147 H147      -46.2887  -22.9384    7.9401 H         1 UNK         0.3156 
    148 H148      -49.8168  -23.2109    7.5840 H         1 UNK         0.0589 
    149 H149      -47.8799  -21.0391    6.6111 H         1 UNK         0.0808 
    150 H150      -49.4323  -21.4517    5.8814 H         1 UNK         0.0808 
    151 H151      -49.3751  -20.7529    7.4901 H         1 UNK         0.0808 
    152 H152      -47.7356  -23.3621    5.6655 H         1 UNK         0.3098 
    153 H153      -47.3817  -25.3661    4.6596 H         1 UNK         0.0720 
    154 H154      -45.1963  -26.4722    5.2201 H         1 UNK         0.0791 
    155 H155      -45.5968  -26.4350    6.9347 H         1 UNK         0.0791 
    156 H156      -45.3302  -24.9338    6.0545 H         1 UNK         0.0791 
    157 H157      -48.2016  -27.5671    6.4084 H         1 UNK         0.3028 
@<TRIPOS>BOND
     1    1    2 1    
     2    1   82 1    
     3    1   83 1    
     4    1   84 1    
     5    2    3 2    
     6    2    4 am   BACKBONE|DICT|INTERRES
     7    4    5 1    
     8    4   85 1    
     9    5    6 1    
    10    5   80 1    
    11    5   86 1    
    12    6    7 1    
    13    6   87 1    
    14    6   88 1    
    15    7    8 1    
    16    8    9 1    
    17    8   89 1    
    18    8   90 1    
    19    9   10 ar   
    20    9   14 ar   
    21   10   11 ar   
    22   10   91 1    
    23   11   12 ar   
    24   11   58 1    
    25   12   13 ar   
    26   12   92 1    
    27   13   14 ar   
    28   13   15 1    
    29   14   93 1    
    30   15   16 1    
    31   15   94 1    
    32   15   95 1    
    33   16   17 1    
    34   17   18 1    
    35   17   96 1    
    36   17   97 1    
    37   18   19 1    
    38   18   22 1    
    39   18   98 1    
    40   19   20 am   BACKBONE|DICT|INTERRES
    41   19   21 2    
    42   20   99 1    
    43   20  100 1    
    44   22   23 am   BACKBONE|DICT|INTERRES
    45   22  101 1    
    46   23   24 2    
    47   23   25 1    
    48   25   26 1    
    49   25   27 1    
    50   25  102 1    
    51   26  103 1    
    52   26  104 1    
    53   26  105 1    
    54   27   28 am   BACKBONE|DICT|INTERRES
    55   27  106 1    
    56   28   29 2    
    57   28   30 1    
    58   30   31 1    
    59   30   32 1    
    60   30  107 1    
    61   31  108 1    
    62   31  109 1    
    63   31  110 1    
    64   32   33 am   BACKBONE|DICT|INTERRES
    65   32  111 1    
    66   33   34 2    
    67   33   35 1    
    68   35   36 1    
    69   35   37 1    
    70   35  112 1    
    71   36  113 1    
    72   36  114 1    
    73   36  115 1    
    74   37   38 am   BACKBONE|DICT|INTERRES
    75   37  116 1    
    76   38   39 2    
    77   38   40 1    
    78   40   41 1    
    79   40   42 1    
    80   40  117 1    
    81   41  118 1    
    82   41  119 1    
    83   41  120 1    
    84   42   43 am   BACKBONE|DICT|INTERRES
    85   42  121 1    
    86   43   44 2    
    87   43   45 1    
    88   45   46 1    
    89   45   47 1    
    90   45  122 1    
    91   46  123 1    
    92   46  124 1    
    93   46  125 1    
    94   47   48 am   BACKBONE|DICT|INTERRES
    95   47  126 1    
    96   48   49 2    
    97   48   50 1    
    98   50   51 1    
    99   50   52 1    
   100   50  127 1    
   101   51  128 1    
   102   51  129 1    
   103   51  130 1    
   104   52   53 am   BACKBONE|DICT|INTERRES
   105   52  131 1    
   106   53   54 2    
   107   53   55 1    
   108   55   56 1    
   109   55   59 1    
   110   55  132 1    
   111   56   57 1    
   112   56  133 1    
   113   56  134 1    
   114   57   58 1    
   115   58  135 1    
   116   58  136 1    
   117   59   60 am   BACKBONE|DICT|INTERRES
   118   59  137 1    
   119   60   61 2    
   120   60   62 1    
   121   62   63 1    
   122   62   64 1    
   123   62  138 1    
   124   63  139 1    
   125   63  140 1    
   126   63  141 1    
   127   64   65 am   BACKBONE|DICT|INTERRES
   128   64  142 1    
   129   65   66 2    
   130   65   67 1    
   131   67   68 1    
   132   67   69 1    
   133   67  143 1    
   134   68  144 1    
   135   68  145 1    
   136   68  146 1    
   137   69   70 am   BACKBONE|DICT|INTERRES
   138   69  147 1    
   139   70   71 2    
   140   70   72 1    
   141   72   73 1    
   142   72   74 1    
   143   72  148 1    
   144   73  149 1    
   145   73  150 1    
   146   73  151 1    
   147   74   75 am   BACKBONE|DICT|INTERRES
   148   74  152 1    
   149   75   76 2    
   150   75   77 1    
   151   77   78 1    
   152   77   79 1    
   153   77  153 1    
   154   78  154 1    
   155   78  155 1    
   156   78  156 1    
   157   79   80 am   BACKBONE|DICT|INTERRES
   158   79  157 1    
   159   80   81 2    
@<TRIPOS>SUBSTRUCTURE
     1 UNK         1 GROUP             0       ****    0 ROOT    
