@<TRIPOS>MOLECULE
3R207
157   159    1
SMALL
USER_CHARGES


@<TRIPOS>ATOM
      1 CA        -49.5502  -30.3723    0.7001 C.3       0 UNK        -0.1975 
      2 C         -49.5772  -30.0338    2.1833 C.2       0 UNK         0.4852 
      3 O         -50.6088  -30.2095    2.8328 O.2       0 UNK        -0.5216 
      4 N         -48.4542  -29.5492    2.7223 N.am      1 UNK        -0.4461 
      5 CA        -48.2877  -29.1337    4.1126 C.3       1 UNK         0.0864 
      6 C6        -48.0865  -30.3457    5.0628 C.3       14 UNK        -0.0898 
      7 S7        -48.5446  -29.9540    6.7809 S.3       14 UNK        -0.2598 
      8 C8        -50.3381  -30.2547    6.7388 C.3       14 UNK         0.0286 
      9 C9        -51.0720  -29.2799    7.6454 C.ar      14 UNK        -0.0844 
     10 C10       -51.3463  -27.9855    7.1957 C.ar      14 UNK        -0.0881 
     11 C11       -52.0310  -27.0770    8.0079 C.ar      14 UNK        -0.0643 
     12 C12       -52.4509  -27.4793    9.2807 C.ar      14 UNK        -0.0930 
     13 C13       -52.1895  -28.7754    9.7402 C.ar      14 UNK        -0.0827 
     14 C14       -51.4936  -29.6694    8.9198 C.ar      14 UNK        -0.1249 
     15 C15       -52.6739  -29.2159   11.1148 C.3       14 UNK         0.0141 
     16 S16       -54.4721  -29.4993   11.1093 S.3       14 UNK        -0.2313 
     17 C17       -54.7812  -30.0928   12.8087 C.3       14 UNK        -0.0915 
     18 CA        -55.6259  -29.1037   13.6685 C.3       13 UNK         0.0968 
     19 C         -57.1608  -29.1460   13.3696 C.2       13 UNK         0.5732 
     20 N         -58.0395  -28.9644   14.3502 N.am      13 UNK        -0.7310 
     21 O         -57.5748  -29.3142   12.2254 O.2       13 UNK        -0.5035 
     22 N         -55.2826  -29.1847   15.0968 N.am      13 UNK        -0.4233 
     23 C         -55.5014  -30.2330   15.9014 C.2       13 UNK         0.4989 
     24 O         -55.9217  -31.3256   15.5190 O.2       13 UNK        -0.4996 
     25 CA        -55.2481  -30.0129   17.4024 C.3       12 UNK         0.0216 
     26 CB        -53.8017  -30.3819   17.7710 C.3       12 UNK        -0.1964 
     27 N         -55.5410  -28.6476   17.8569 N.am      12 UNK        -0.4276 
     28 C         -56.7530  -28.0697   17.8449 C.2       12 UNK         0.5020 
     29 O         -57.7610  -28.6137   17.3922 O.2       12 UNK        -0.5489 
     30 CA        -56.8715  -26.6521   18.4361 C.3       11 UNK         0.0294 
     31 CB        -57.3600  -26.7210   19.8922 C.3       11 UNK        -0.2019 
     32 N         -55.6076  -25.9131   18.3865 N.am      11 UNK        -0.4493 
     33 C         -55.1445  -25.2871   17.2967 C.2       11 UNK         0.4932 
     34 O         -55.7981  -25.1536   16.2601 O.2       11 UNK        -0.5029 
     35 CA        -53.7011  -24.7372   17.3535 C.3       10 UNK         0.0280 
     36 CB        -52.9119  -25.1599   18.6141 C.3       10 UNK        -0.1976 
     37 N         -52.9300  -25.0825   16.1520 N.am      10 UNK        -0.4242 
     38 C         -52.7874  -26.3035   15.6115 C.2       10 UNK         0.5072 
     39 O         -53.2989  -27.3295   16.0621 O.2       10 UNK        -0.5224 
     40 CA        -51.9285  -26.3990   14.3423 C.3       9 UNK         0.0343 
     41 CB        -52.7565  -25.9798   13.1178 C.3       9 UNK        -0.2003 
     42 N         -50.6889  -25.6165   14.3880 N.am      9 UNK        -0.4272 
     43 C         -49.7107  -25.7490   15.2980 C.2       9 UNK         0.4988 
     44 O         -49.7836  -26.5002   16.2715 O.2       9 UNK        -0.5108 
     45 CA        -48.4095  -24.9467   15.0919 C.3       8 UNK         0.0248 
     46 CB        -47.2139  -25.9005   14.9249 C.3       8 UNK        -0.2001 
     47 N         -48.4365  -24.0258   13.9517 N.am      8 UNK        -0.4140 
     48 C         -49.0495  -22.8346   13.9407 C.2       8 UNK         0.5028 
     49 O         -49.6650  -22.3724   14.9019 O.2       8 UNK        -0.5428 
     50 CA        -48.9919  -22.0396   12.6243 C.3       7 UNK         0.0264 
     51 CB        -47.6504  -21.3017   12.4880 C.3       7 UNK        -0.1988 
     52 N         -49.2157  -22.8811   11.4448 N.am      7 UNK        -0.4454 
     53 C         -50.3729  -23.4999   11.1679 C.2       7 UNK         0.5027 
     54 O         -51.3881  -23.3683   11.8503 O.2       7 UNK        -0.5083 
     55 CA        -50.4043  -24.4448    9.9496 C.3       6 UNK         0.0844 
     56 C56       -50.7301  -23.6623    8.6563 C.3       14 UNK        -0.0967 
     57 S57       -50.8429  -24.7058    7.1648 S.3       14 UNK        -0.2604 
     58 C58       -52.3499  -25.6831    7.4798 C.3       14 UNK         0.0134 
     59 N         -49.1872  -25.2547    9.8518 N.am      6 UNK        -0.4116 
     60 C         -48.8331  -26.1923   10.7433 C.2       5 UNK         0.5034 
     61 O         -49.5247  -26.5276   11.7026 O.2       5 UNK        -0.5045 
     62 CA        -47.4452  -26.8253   10.5747 C.3       5 UNK         0.0224 
     63 CB        -47.5009  -28.0181    9.6101 C.3       5 UNK        -0.1978 
     64 N         -46.4518  -25.8502   10.1188 N.am      5 UNK        -0.4737 
     65 C         -45.9806  -24.8530   10.8816 C.2       4 UNK         0.5027 
     66 O         -46.3029  -24.6836   12.0564 O.2       4 UNK        -0.5211 
     67 CA        -45.0279  -23.8492   10.2112 C.3       4 UNK         0.0297 
     68 CB        -43.5845  -24.3758   10.2361 C.3       4 UNK        -0.1993 
     69 N         -45.4137  -23.5346    8.8341 N.am      4 UNK        -0.4486 
     70 C         -46.5528  -22.9193    8.4853 C.2       3 UNK         0.4961 
     71 O         -47.3765  -22.4941    9.2941 O.2       3 UNK        -0.5105 
     72 CA        -46.8481  -22.8041    6.9799 C.3       3 UNK         0.0299 
     73 CB        -46.2747  -21.4940    6.4179 C.3       3 UNK        -0.1972 
     74 N         -46.3518  -23.9394    6.1921 N.am      3 UNK        -0.4305 
     75 C         -46.7415  -25.2097    6.3641 C.2       2 UNK         0.5006 
     76 O         -47.5311  -25.5749    7.2376 O.2       2 UNK        -0.5106 
     77 CA        -46.1046  -26.2561    5.4479 C.3       2 UNK         0.0296 
     78 CB        -44.8241  -26.8283    6.0829 C.3       2 UNK        -0.2002 
     79 N         -47.0756  -27.3234    5.2340 N.am      2 UNK        -0.4032 
     80 C         -47.1246  -28.1263    4.1665 C.2       1 UNK         0.5000 
     81 O         -46.3046  -28.0916    3.2422 O.2       1 UNK        -0.5238 
     82 H82       -49.7795  -31.4272    0.5522 H         1 UNK         0.0889 
     83 H83       -50.2958  -29.7830    0.1671 H         1 UNK         0.0889 
     84 H84       -48.5763  -30.1712    0.2540 H         1 UNK         0.0889 
     85 H85       -47.6353  -29.3714    2.1517 H         1 UNK         0.3028 
     86 H86       -49.1931  -28.5924    4.3971 H         1 UNK         0.0864 
     87 H87       -47.0542  -30.7004    5.0390 H         1 UNK         0.0720 
     88 H88       -48.6935  -31.1945    4.7438 H         1 UNK         0.0720 
     89 H89       -50.5371  -31.2862    7.0332 H         1 UNK         0.0814 
     90 H90       -50.7170  -30.1495    5.7209 H         1 UNK         0.0814 
     91 H91       -51.0262  -27.6810    6.2088 H         1 UNK         0.1469 
     92 H92       -52.9998  -26.7929    9.9102 H         1 UNK         0.1381 
     93 H93       -51.2894  -30.6727    9.2680 H         1 UNK         0.1206 
     94 H94       -52.4172  -28.4620   11.8576 H         1 UNK         0.0813 
     95 H95       -52.1671  -30.1324   11.4209 H         1 UNK         0.0813 
     96 H96       -55.2637  -31.0704   12.7579 H         1 UNK         0.0638 
     97 H97       -53.8147  -30.2686   13.2834 H         1 UNK         0.0638 
     98 H98       -55.3318  -28.0933   13.3896 H         1 UNK         0.0568 
     99 H99       -57.7440  -28.8385   15.3109 H         1 UNK         0.3450 
    100 H100      -59.0225  -28.9847   14.1312 H         1 UNK         0.3450 
    101 H101      -54.8565  -28.3568   15.5032 H         1 UNK         0.2987 
    102 H102      -55.9167  -30.6856   17.9438 H         1 UNK         0.0766 
    103 H103      -53.5722  -31.4051   17.4701 H         1 UNK         0.0798 
    104 H104      -53.6366  -30.3179   18.8466 H         1 UNK         0.0798 
    105 H105      -53.0787  -29.7294   17.2802 H         1 UNK         0.0798 
    106 H106      -54.7544  -28.1025   18.1779 H         1 UNK         0.3198 
    107 H107      -57.6222  -26.1139   17.8527 H         1 UNK         0.0843 
    108 H108      -57.5100  -25.7245   20.3083 H         1 UNK         0.0831 
    109 H109      -56.6547  -27.2514   20.5333 H         1 UNK         0.0831 
    110 H110      -58.3152  -27.2441   19.9574 H         1 UNK         0.0831 
    111 H111      -55.0185  -25.9535   19.2060 H         1 UNK         0.3133 
    112 H112      -53.7889  -23.6501   17.3629 H         1 UNK         0.0566 
    113 H113      -53.3887  -24.8012   19.5271 H         1 UNK         0.0814 
    114 H114      -52.8069  -26.2433   18.6875 H         1 UNK         0.0814 
    115 H115      -51.9063  -24.7388   18.6009 H         1 UNK         0.0814 
    116 H116      -52.4851  -24.3099   15.6768 H         1 UNK         0.3091 
    117 H117      -51.6405  -27.4447   14.2170 H         1 UNK         0.0702 
    118 H118      -53.0884  -24.9435   13.1893 H         1 UNK         0.0785 
    119 H119      -53.6480  -26.5967   13.0150 H         1 UNK         0.0785 
    120 H120      -52.1838  -26.0840   12.1974 H         1 UNK         0.0785 
    121 H121      -50.5215  -25.0018   13.6036 H         1 UNK         0.2998 
    122 H122      -48.2489  -24.3618   15.9999 H         1 UNK         0.0697 
    123 H123      -46.2766  -25.3509   14.8347 H         1 UNK         0.0825 
    124 H124      -47.1155  -26.5663   15.7833 H         1 UNK         0.0825 
    125 H125      -47.3224  -26.5249   14.0372 H         1 UNK         0.0825 
    126 H126      -47.8978  -24.3047   13.1354 H         1 UNK         0.3029 
    127 H127      -49.7877  -21.2920   12.6556 H         1 UNK         0.0897 
    128 H128      -47.6278  -20.6838   11.5901 H         1 UNK         0.0792 
    129 H129      -47.4792  -20.6428   13.3403 H         1 UNK         0.0792 
    130 H130      -46.8101  -21.9945   12.4368 H         1 UNK         0.0792 
    131 H131      -48.4462  -22.9614   10.7834 H         1 UNK         0.3086 
    132 H132      -51.2275  -25.1363   10.1264 H         1 UNK         0.0583 
    133 H133      -51.6718  -23.1202    8.7648 H         1 UNK         0.1020 
    134 H134      -49.9689  -22.9025    8.4706 H         1 UNK         0.1020 
    135 H135      -53.0109  -25.1448    8.1607 H         1 UNK         0.0694 
    136 H136      -52.8985  -25.7841    6.5424 H         1 UNK         0.0694 
    137 H137      -48.5894  -25.0927    9.0494 H         1 UNK         0.2989 
    138 H138      -47.1316  -27.1967   11.5529 H         1 UNK         0.1055 
    139 H139      -48.1948  -28.7781    9.9724 H         1 UNK         0.0806 
    140 H140      -47.8450  -27.7211    8.6203 H         1 UNK         0.0806 
    141 H141      -46.5260  -28.4928    9.5003 H         1 UNK         0.0806 
    142 H142      -46.2060  -25.8759    9.1389 H         1 UNK         0.3061 
    143 H143      -45.0638  -22.9227   10.7883 H         1 UNK         0.0734 
    144 H144      -42.8857  -23.6393    9.8392 H         1 UNK         0.0832 
    145 H145      -43.2707  -24.5998   11.2567 H         1 UNK         0.0832 
    146 H146      -43.4758  -25.2919    9.6541 H         1 UNK         0.0832 
    147 H147      -44.7937  -23.8433    8.1000 H         1 UNK         0.3156 
    148 H148      -47.9337  -22.7773    6.8637 H         1 UNK         0.0589 
    149 H149      -46.5617  -21.3488    5.3763 H         1 UNK         0.0808 
    150 H150      -46.6482  -20.6344    6.9767 H         1 UNK         0.0808 
    151 H151      -45.1857  -21.4705    6.4742 H         1 UNK         0.0808 
    152 H152      -45.6891  -23.7276    5.4595 H         1 UNK         0.3098 
    153 H153      -45.8649  -25.7860    4.4915 H         1 UNK         0.0720 
    154 H154      -44.0897  -26.0432    6.2664 H         1 UNK         0.0791 
    155 H155      -45.0317  -27.3150    7.0370 H         1 UNK         0.0791 
    156 H156      -44.3531  -27.5636    5.4303 H         1 UNK         0.0791 
    157 H157      -47.7851  -27.3903    5.9547 H         1 UNK         0.3028 
@<TRIPOS>BOND
     1    1    2 1    
     2    1   82 1    
     3    1   83 1    
     4    1   84 1    
     5    2    3 2    
     6    2    4 am   BACKBONE|DICT|INTERRES
     7    4    5 1    
     8    4   85 1    
     9    5    6 1    
    10    5   80 1    
    11    5   86 1    
    12    6    7 1    
    13    6   87 1    
    14    6   88 1    
    15    7    8 1    
    16    8    9 1    
    17    8   89 1    
    18    8   90 1    
    19    9   10 ar   
    20    9   14 ar   
    21   10   11 ar   
    22   10   91 1    
    23   11   12 ar   
    24   11   58 1    
    25   12   13 ar   
    26   12   92 1    
    27   13   14 ar   
    28   13   15 1    
    29   14   93 1    
    30   15   16 1    
    31   15   94 1    
    32   15   95 1    
    33   16   17 1    
    34   17   18 1    
    35   17   96 1    
    36   17   97 1    
    37   18   19 1    
    38   18   22 1    
    39   18   98 1    
    40   19   20 am   BACKBONE|DICT|INTERRES
    41   19   21 2    
    42   20   99 1    
    43   20  100 1    
    44   22   23 am   BACKBONE|DICT|INTERRES
    45   22  101 1    
    46   23   24 2    
    47   23   25 1    
    48   25   26 1    
    49   25   27 1    
    50   25  102 1    
    51   26  103 1    
    52   26  104 1    
    53   26  105 1    
    54   27   28 am   BACKBONE|DICT|INTERRES
    55   27  106 1    
    56   28   29 2    
    57   28   30 1    
    58   30   31 1    
    59   30   32 1    
    60   30  107 1    
    61   31  108 1    
    62   31  109 1    
    63   31  110 1    
    64   32   33 am   BACKBONE|DICT|INTERRES
    65   32  111 1    
    66   33   34 2    
    67   33   35 1    
    68   35   36 1    
    69   35   37 1    
    70   35  112 1    
    71   36  113 1    
    72   36  114 1    
    73   36  115 1    
    74   37   38 am   BACKBONE|DICT|INTERRES
    75   37  116 1    
    76   38   39 2    
    77   38   40 1    
    78   40   41 1    
    79   40   42 1    
    80   40  117 1    
    81   41  118 1    
    82   41  119 1    
    83   41  120 1    
    84   42   43 am   BACKBONE|DICT|INTERRES
    85   42  121 1    
    86   43   44 2    
    87   43   45 1    
    88   45   46 1    
    89   45   47 1    
    90   45  122 1    
    91   46  123 1    
    92   46  124 1    
    93   46  125 1    
    94   47   48 am   BACKBONE|DICT|INTERRES
    95   47  126 1    
    96   48   49 2    
    97   48   50 1    
    98   50   51 1    
    99   50   52 1    
   100   50  127 1    
   101   51  128 1    
   102   51  129 1    
   103   51  130 1    
   104   52   53 am   BACKBONE|DICT|INTERRES
   105   52  131 1    
   106   53   54 2    
   107   53   55 1    
   108   55   56 1    
   109   55   59 1    
   110   55  132 1    
   111   56   57 1    
   112   56  133 1    
   113   56  134 1    
   114   57   58 1    
   115   58  135 1    
   116   58  136 1    
   117   59   60 am   BACKBONE|DICT|INTERRES
   118   59  137 1    
   119   60   61 2    
   120   60   62 1    
   121   62   63 1    
   122   62   64 1    
   123   62  138 1    
   124   63  139 1    
   125   63  140 1    
   126   63  141 1    
   127   64   65 am   BACKBONE|DICT|INTERRES
   128   64  142 1    
   129   65   66 2    
   130   65   67 1    
   131   67   68 1    
   132   67   69 1    
   133   67  143 1    
   134   68  144 1    
   135   68  145 1    
   136   68  146 1    
   137   69   70 am   BACKBONE|DICT|INTERRES
   138   69  147 1    
   139   70   71 2    
   140   70   72 1    
   141   72   73 1    
   142   72   74 1    
   143   72  148 1    
   144   73  149 1    
   145   73  150 1    
   146   73  151 1    
   147   74   75 am   BACKBONE|DICT|INTERRES
   148   74  152 1    
   149   75   76 2    
   150   75   77 1    
   151   77   78 1    
   152   77   79 1    
   153   77  153 1    
   154   78  154 1    
   155   78  155 1    
   156   78  156 1    
   157   79   80 am   BACKBONE|DICT|INTERRES
   158   79  157 1    
   159   80   81 2    
@<TRIPOS>SUBSTRUCTURE
     1 UNK         1 GROUP             0       ****    0 ROOT    
