@<TRIPOS>MOLECULE
3R207
157   159    1
SMALL
USER_CHARGES


@<TRIPOS>ATOM
      1 CA        -48.4733  -31.0224    1.3034 C.3       0 UNK        -0.1975 
      2 C         -48.6581  -30.0033    2.4185 C.2       0 UNK         0.4852 
      3 O         -49.3646  -29.0117    2.2292 O.2       0 UNK        -0.5216 
      4 N         -48.0368  -30.2455    3.5797 N.am      1 UNK        -0.4461 
      5 CA        -48.0632  -29.3548    4.7445 C.3       1 UNK         0.0864 
      6 C6        -47.6526  -30.0965    6.0426 C.3       14 UNK        -0.0898 
      7 S7        -48.8353  -31.4029    6.5257 S.3       14 UNK        -0.2598 
      8 C8        -49.5086  -30.7755    8.1049 C.3       14 UNK         0.0286 
      9 C9        -50.8802  -30.1313    7.9443 C.ar      14 UNK        -0.0844 
     10 C10       -51.0346  -28.9575    7.2011 C.ar      14 UNK        -0.0881 
     11 C11       -52.2908  -28.3573    7.0635 C.ar      14 UNK        -0.0643 
     12 C12       -53.3985  -28.9376    7.6861 C.ar      14 UNK        -0.0930 
     13 C13       -53.2559  -30.0978    8.4520 C.ar      14 UNK        -0.0827 
     14 C14       -51.9969  -30.6943    8.5708 C.ar      14 UNK        -0.1249 
     15 C15       -54.4652  -30.7036    9.1500 C.3       14 UNK         0.0141 
     16 S16       -55.1249  -29.6067   10.4457 S.3       14 UNK        -0.2313 
     17 C17       -53.7472  -29.5831   11.6410 C.3       14 UNK        -0.0915 
     18 CA        -54.2041  -29.0959   13.0396 C.3       13 UNK         0.0968 
     19 C         -53.0619  -29.2509   14.0792 C.2       13 UNK         0.5732 
     20 N         -52.9628  -30.4085   14.7183 N.am      13 UNK        -0.7310 
     21 O         -52.2399  -28.3592   14.2802 O.2       13 UNK        -0.5035 
     22 N         -54.7007  -27.7163   12.9883 N.am      13 UNK        -0.4233 
     23 C         -55.5452  -27.1763   13.8715 C.2       13 UNK         0.4989 
     24 O         -56.1231  -27.8089   14.7593 O.2       13 UNK        -0.4996 
     25 CA        -55.8054  -25.6641   13.7215 C.3       12 UNK         0.0216 
     26 CB        -57.1856  -25.4147   13.0915 C.3       12 UNK        -0.1964 
     27 N         -55.7028  -24.9175   14.9835 N.am      12 UNK        -0.4276 
     28 C         -54.6490  -24.9540   15.8090 C.2       12 UNK         0.5020 
     29 O         -53.6655  -25.6817   15.6368 O.2       12 UNK        -0.5489 
     30 CA        -54.6580  -24.0074   17.0193 C.3       11 UNK         0.0294 
     31 CB        -55.5521  -24.5548   18.1476 C.3       11 UNK        -0.2019 
     32 N         -53.2658  -23.9697   17.4343 N.am      11 UNK        -0.4493 
     33 C         -52.6335  -23.2864   18.3872 C.2       11 UNK         0.4932 
     34 O         -53.1637  -22.4408   19.1089 O.2       11 UNK        -0.5029 
     35 CA        -51.1352  -23.6317   18.5275 C.3       10 UNK         0.0280 
     36 CB        -50.5590  -23.3044   19.9216 C.3       10 UNK        -0.1976 
     37 N         -50.8514  -25.0198   18.1164 N.am      10 UNK        -0.4242 
     38 C         -51.2615  -26.1470   18.7270 C.2       10 UNK         0.5072 
     39 O         -51.8065  -26.1597   19.8318 O.2       10 UNK        -0.5224 
     40 CA        -51.0840  -27.4919   17.9865 C.3       9 UNK         0.0343 
     41 CB        -52.4182  -28.2554   17.9012 C.3       9 UNK        -0.2003 
     42 N         -50.5358  -27.3690   16.6338 N.am      9 UNK        -0.4272 
     43 C         -49.2432  -27.1682   16.3457 C.2       9 UNK         0.4988 
     44 O         -48.3567  -27.1015   17.1977 O.2       9 UNK        -0.5108 
     45 CA        -48.8724  -26.9881   14.8624 C.3       8 UNK         0.0248 
     46 CB        -48.4369  -28.3379   14.2693 C.3       8 UNK        -0.2001 
     47 N         -49.9353  -26.4092   14.0309 N.am      8 UNK        -0.4140 
     48 C         -50.5399  -25.2287   14.2392 C.2       8 UNK         0.5028 
     49 O         -50.2747  -24.4878   15.1896 O.2       8 UNK        -0.5428 
     50 CA        -51.6230  -24.8190   13.2262 C.3       7 UNK         0.0264 
     51 CB        -51.9694  -23.3196   13.2800 C.3       7 UNK        -0.1988 
     52 N         -51.2329  -25.1871   11.8678 N.am      7 UNK        -0.4454 
     53 C         -52.0255  -25.8167   10.9875 C.2       7 UNK         0.5027 
     54 O         -53.2084  -26.0801   11.2102 O.2       7 UNK        -0.5083 
     55 CA        -51.4165  -26.2352    9.6294 C.3       6 UNK         0.0844 
     56 C56       -52.0192  -25.3691    8.4907 C.3       14 UNK        -0.0967 
     57 S57       -51.3648  -25.7399    6.8276 S.3       14 UNK        -0.2604 
     58 C58       -52.4555  -27.0791    6.2523 C.3       14 UNK         0.0134 
     59 N         -49.9480  -26.2514    9.6306 N.am      6 UNK        -0.4116 
     60 C         -49.1902  -27.0558   10.3912 C.2       5 UNK         0.5034 
     61 O         -49.6470  -27.9315   11.1253 O.2       5 UNK        -0.5045 
     62 CA        -47.6740  -26.7993   10.3955 C.3       5 UNK         0.0224 
     63 CB        -46.9444  -27.7624    9.4469 C.3       5 UNK        -0.1978 
     64 N         -47.3257  -25.4161   10.0604 N.am      5 UNK        -0.4737 
     65 C         -47.5356  -24.3612   10.8598 C.2       4 UNK         0.5027 
     66 O         -48.0660  -24.4424   11.9667 O.2       4 UNK        -0.5211 
     67 CA        -47.1000  -22.9860   10.3257 C.3       4 UNK         0.0297 
     68 CB        -45.6168  -22.7334   10.6396 C.3       4 UNK        -0.1993 
     69 N         -47.3266  -22.8444    8.8851 N.am      4 UNK        -0.4486 
     70 C         -48.5358  -22.6887    8.3291 C.2       3 UNK         0.4961 
     71 O         -49.5789  -22.5856    8.9750 O.2       3 UNK        -0.5105 
     72 CA        -48.5976  -22.6722    6.7897 C.3       3 UNK         0.0299 
     73 CB        -48.3571  -21.2496    6.2590 C.3       3 UNK        -0.1972 
     74 N         -47.6896  -23.6099    6.1102 N.am      3 UNK        -0.4305 
     75 C         -47.6311  -24.9276    6.3444 C.2       2 UNK         0.5006 
     76 O         -48.2130  -25.4875    7.2752 O.2       2 UNK        -0.5106 
     77 CA        -46.7756  -25.7813    5.4051 C.3       2 UNK         0.0296 
     78 CB        -45.3360  -25.9008    5.9406 C.3       2 UNK        -0.2002 
     79 N         -47.4259  -27.0864    5.3613 N.am      2 UNK        -0.4032 
     80 C         -47.1814  -28.1034    4.5302 C.2       1 UNK         0.5000 
     81 O         -46.3036  -28.0892    3.6619 O.2       1 UNK        -0.5238 
     82 H82       -47.8415  -31.8550    1.6124 H         1 UNK         0.0889 
     83 H83       -48.0117  -30.5499    0.4368 H         1 UNK         0.0889 
     84 H84       -49.4391  -31.4249    0.9990 H         1 UNK         0.0889 
     85 H85       -47.4601  -31.0689    3.6738 H         1 UNK         0.3028 
     86 H86       -49.0902  -29.0031    4.8553 H         1 UNK         0.0864 
     87 H87       -46.6702  -30.5567    5.9208 H         1 UNK         0.0720 
     88 H88       -47.5443  -29.3981    6.8717 H         1 UNK         0.0720 
     89 H89       -48.8274  -30.0653    8.5722 H         1 UNK         0.0814 
     90 H90       -49.5699  -31.6171    8.7966 H         1 UNK         0.0814 
     91 H91       -50.1741  -28.4961    6.7431 H         1 UNK         0.1469 
     92 H92       -54.3730  -28.4777    7.5939 H         1 UNK         0.1381 
     93 H93       -51.8853  -31.5935    9.1611 H         1 UNK         0.1206 
     94 H94       -55.2471  -30.8880    8.4121 H         1 UNK         0.0813 
     95 H95       -54.2226  -31.6733    9.5875 H         1 UNK         0.0813 
     96 H96       -52.9501  -28.9487   11.2478 H         1 UNK         0.0638 
     97 H97       -53.3354  -30.5920   11.7053 H         1 UNK         0.0638 
     98 H98       -55.0282  -29.7366   13.3602 H         1 UNK         0.0568 
     99 H99       -52.2129  -30.5380   15.3773 H         1 UNK         0.3450 
    100 H100      -53.6202  -31.1543   14.5541 H         1 UNK         0.3450 
    101 H101      -54.2394  -27.1142   12.3095 H         1 UNK         0.2987 
    102 H102      -55.0494  -25.2497   13.0515 H         1 UNK         0.0766 
    103 H103      -57.3482  -24.3553   12.8921 H         1 UNK         0.0798 
    104 H104      -57.9918  -25.7651   13.7374 H         1 UNK         0.0798 
    105 H105      -57.2794  -25.9395   12.1396 H         1 UNK         0.0798 
    106 H106      -56.4787  -24.3142   15.2146 H         1 UNK         0.3198 
    107 H107      -54.9762  -23.0092   16.7135 H         1 UNK         0.0843 
    108 H108      -56.5912  -24.6274   17.8250 H         1 UNK         0.0831 
    109 H109      -55.5321  -23.9073   19.0241 H         1 UNK         0.0831 
    110 H110      -55.2360  -25.5510   18.4611 H         1 UNK         0.0831 
    111 H111      -52.7249  -24.6343   16.8867 H         1 UNK         0.3133 
    112 H112      -50.6149  -23.0007   17.8054 H         1 UNK         0.0566 
    113 H113      -49.5087  -23.5865   19.9938 H         1 UNK         0.0814 
    114 H114      -50.6221  -22.2349   20.1250 H         1 UNK         0.0814 
    115 H115      -51.1009  -23.8139   20.7186 H         1 UNK         0.0814 
    116 H116      -50.4368  -25.1080   17.1933 H         1 UNK         0.3091 
    117 H117      -50.3946  -28.0910   18.5848 H         1 UNK         0.0702 
    118 H118      -52.2840  -29.2367   17.4469 H         1 UNK         0.0785 
    119 H119      -53.1560  -27.7123   17.3096 H         1 UNK         0.0785 
    120 H120      -52.8478  -28.4171   18.8906 H         1 UNK         0.0785 
    121 H121      -51.1963  -27.4330   15.8639 H         1 UNK         0.2998 
    122 H122      -48.0232  -26.3032   14.8211 H         1 UNK         0.0697 
    123 H123      -49.2746  -29.0333   14.1971 H         1 UNK         0.0825 
    124 H124      -47.6709  -28.8106   14.8859 H         1 UNK         0.0825 
    125 H125      -48.0143  -28.2199   13.2734 H         1 UNK         0.0825 
    126 H126      -50.2516  -26.9759   13.2538 H         1 UNK         0.3029 
    127 H127      -52.5111  -25.3852   13.5020 H         1 UNK         0.0897 
    128 H128      -52.7678  -23.0730   12.5801 H         1 UNK         0.0792 
    129 H129      -52.3130  -23.0332   14.2749 H         1 UNK         0.0792 
    130 H130      -51.1044  -22.7010   13.0383 H         1 UNK         0.0792 
    131 H131      -50.2639  -25.0101   11.6270 H         1 UNK         0.3086 
    132 H132      -51.7359  -27.2661    9.4755 H         1 UNK         0.0583 
    133 H133      -53.1057  -25.4753    8.4666 H         1 UNK         0.1020 
    134 H134      -51.8262  -24.3118    8.6840 H         1 UNK         0.1020 
    135 H135      -53.4887  -26.7290    6.2715 H         1 UNK         0.0694 
    136 H136      -52.2226  -27.2955    5.2089 H         1 UNK         0.0694 
    137 H137      -49.4851  -25.6176    8.9885 H         1 UNK         0.2989 
    138 H138      -47.3159  -26.9907   11.4088 H         1 UNK         0.1055 
    139 H139      -47.1237  -28.7989    9.7340 H         1 UNK         0.0806 
    140 H140      -45.8662  -27.6043    9.4717 H         1 UNK         0.0806 
    141 H141      -47.2771  -27.6438    8.4170 H         1 UNK         0.0806 
    142 H142      -46.9936  -25.2515    9.1198 H         1 UNK         0.3061 
    143 H143      -47.6902  -22.2270   10.8442 H         1 UNK         0.0734 
    144 H144      -45.4278  -22.8130   11.7112 H         1 UNK         0.0832 
    145 H145      -44.9670  -23.4534   10.1406 H         1 UNK         0.0832 
    146 H146      -45.3105  -21.7334   10.3322 H         1 UNK         0.0832 
    147 H147      -46.5231  -22.9144    8.2776 H         1 UNK         0.3156 
    148 H148      -49.6125  -22.9654    6.5129 H         1 UNK         0.0589 
    149 H149      -47.3383  -20.9121    6.4532 H         1 UNK         0.0808 
    150 H150      -48.5326  -21.1905    5.1847 H         1 UNK         0.0808 
    151 H151      -49.0326  -20.5362    6.7337 H         1 UNK         0.0808 
    152 H152      -47.1552  -23.2352    5.3391 H         1 UNK         0.3098 
    153 H153      -46.7768  -25.3440    4.4048 H         1 UNK         0.0720 
    154 H154      -44.7131  -26.5063    5.2823 H         1 UNK         0.0791 
    155 H155      -45.3116  -26.3545    6.9323 H         1 UNK         0.0791 
    156 H156      -44.8636  -24.9207    6.0166 H         1 UNK         0.0791 
    157 H157      -48.1664  -27.1594    6.0494 H         1 UNK         0.3028 
@<TRIPOS>BOND
     1    1    2 1    
     2    1   82 1    
     3    1   83 1    
     4    1   84 1    
     5    2    3 2    
     6    2    4 am   BACKBONE|DICT|INTERRES
     7    4    5 1    
     8    4   85 1    
     9    5    6 1    
    10    5   80 1    
    11    5   86 1    
    12    6    7 1    
    13    6   87 1    
    14    6   88 1    
    15    7    8 1    
    16    8    9 1    
    17    8   89 1    
    18    8   90 1    
    19    9   10 ar   
    20    9   14 ar   
    21   10   11 ar   
    22   10   91 1    
    23   11   12 ar   
    24   11   58 1    
    25   12   13 ar   
    26   12   92 1    
    27   13   14 ar   
    28   13   15 1    
    29   14   93 1    
    30   15   16 1    
    31   15   94 1    
    32   15   95 1    
    33   16   17 1    
    34   17   18 1    
    35   17   96 1    
    36   17   97 1    
    37   18   19 1    
    38   18   22 1    
    39   18   98 1    
    40   19   20 am   BACKBONE|DICT|INTERRES
    41   19   21 2    
    42   20   99 1    
    43   20  100 1    
    44   22   23 am   BACKBONE|DICT|INTERRES
    45   22  101 1    
    46   23   24 2    
    47   23   25 1    
    48   25   26 1    
    49   25   27 1    
    50   25  102 1    
    51   26  103 1    
    52   26  104 1    
    53   26  105 1    
    54   27   28 am   BACKBONE|DICT|INTERRES
    55   27  106 1    
    56   28   29 2    
    57   28   30 1    
    58   30   31 1    
    59   30   32 1    
    60   30  107 1    
    61   31  108 1    
    62   31  109 1    
    63   31  110 1    
    64   32   33 am   BACKBONE|DICT|INTERRES
    65   32  111 1    
    66   33   34 2    
    67   33   35 1    
    68   35   36 1    
    69   35   37 1    
    70   35  112 1    
    71   36  113 1    
    72   36  114 1    
    73   36  115 1    
    74   37   38 am   BACKBONE|DICT|INTERRES
    75   37  116 1    
    76   38   39 2    
    77   38   40 1    
    78   40   41 1    
    79   40   42 1    
    80   40  117 1    
    81   41  118 1    
    82   41  119 1    
    83   41  120 1    
    84   42   43 am   BACKBONE|DICT|INTERRES
    85   42  121 1    
    86   43   44 2    
    87   43   45 1    
    88   45   46 1    
    89   45   47 1    
    90   45  122 1    
    91   46  123 1    
    92   46  124 1    
    93   46  125 1    
    94   47   48 am   BACKBONE|DICT|INTERRES
    95   47  126 1    
    96   48   49 2    
    97   48   50 1    
    98   50   51 1    
    99   50   52 1    
   100   50  127 1    
   101   51  128 1    
   102   51  129 1    
   103   51  130 1    
   104   52   53 am   BACKBONE|DICT|INTERRES
   105   52  131 1    
   106   53   54 2    
   107   53   55 1    
   108   55   56 1    
   109   55   59 1    
   110   55  132 1    
   111   56   57 1    
   112   56  133 1    
   113   56  134 1    
   114   57   58 1    
   115   58  135 1    
   116   58  136 1    
   117   59   60 am   BACKBONE|DICT|INTERRES
   118   59  137 1    
   119   60   61 2    
   120   60   62 1    
   121   62   63 1    
   122   62   64 1    
   123   62  138 1    
   124   63  139 1    
   125   63  140 1    
   126   63  141 1    
   127   64   65 am   BACKBONE|DICT|INTERRES
   128   64  142 1    
   129   65   66 2    
   130   65   67 1    
   131   67   68 1    
   132   67   69 1    
   133   67  143 1    
   134   68  144 1    
   135   68  145 1    
   136   68  146 1    
   137   69   70 am   BACKBONE|DICT|INTERRES
   138   69  147 1    
   139   70   71 2    
   140   70   72 1    
   141   72   73 1    
   142   72   74 1    
   143   72  148 1    
   144   73  149 1    
   145   73  150 1    
   146   73  151 1    
   147   74   75 am   BACKBONE|DICT|INTERRES
   148   74  152 1    
   149   75   76 2    
   150   75   77 1    
   151   77   78 1    
   152   77   79 1    
   153   77  153 1    
   154   78  154 1    
   155   78  155 1    
   156   78  156 1    
   157   79   80 am   BACKBONE|DICT|INTERRES
   158   79  157 1    
   159   80   81 2    
@<TRIPOS>SUBSTRUCTURE
     1 UNK         1 GROUP             0       ****    0 ROOT    
