@<TRIPOS>MOLECULE
3R207
157   159    1
SMALL
USER_CHARGES


@<TRIPOS>ATOM
      1 CA        -47.9974  -28.1823    0.5792 C.3       0 UNK        -0.1975 
      2 C         -48.2142  -27.9683    2.0702 C.2       0 UNK         0.4852 
      3 O         -47.3326  -28.2902    2.8685 O.2       0 UNK        -0.5216 
      4 N         -49.3760  -27.4204    2.4501 N.am      1 UNK        -0.4461 
      5 CA        -49.7830  -27.2054    3.8423 C.3       1 UNK         0.0864 
      6 C6        -50.9312  -26.1692    3.9286 C.3       14 UNK        -0.0898 
      7 S7        -50.9934  -25.3429    5.5518 S.3       14 UNK        -0.2598 
      8 C8        -52.6472  -25.8287    6.1355 C.3       14 UNK         0.0286 
      9 C9        -52.9565  -25.2494    7.5096 C.ar      14 UNK        -0.0844 
     10 C10       -52.9641  -23.8648    7.7051 C.ar      14 UNK        -0.0881 
     11 C11       -53.2646  -23.3202    8.9574 C.ar      14 UNK        -0.0643 
     12 C12       -53.5837  -24.1753   10.0164 C.ar      14 UNK        -0.0930 
     13 C13       -53.5933  -25.5615    9.8316 C.ar      14 UNK        -0.0827 
     14 C14       -53.2732  -26.0925    8.5787 C.ar      14 UNK        -0.1249 
     15 C15       -53.9912  -26.4782   10.9785 C.3       14 UNK         0.0141 
     16 S16       -52.5901  -26.8252   12.0883 S.3       14 UNK        -0.2313 
     17 C17       -51.6958  -28.1137   11.1463 C.3       14 UNK        -0.0915 
     18 CA        -51.4519  -29.4408   11.9216 C.3       13 UNK         0.0968 
     19 C         -50.0980  -29.4577   12.6948 C.2       13 UNK         0.5732 
     20 N         -50.0448  -29.8167   13.9716 N.am      13 UNK        -0.7310 
     21 O         -49.0559  -29.1637   12.1165 O.2       13 UNK        -0.5035 
     22 N         -52.6263  -29.8257   12.7174 N.am      13 UNK        -0.4233 
     23 C         -52.9448  -31.0637   13.1067 C.2       13 UNK         0.4989 
     24 O         -52.3510  -32.0752   12.7286 O.2       13 UNK        -0.4996 
     25 CA        -54.1212  -31.1732   14.1016 C.3       12 UNK         0.0216 
     26 CB        -54.1804  -32.5479   14.8011 C.3       12 UNK        -0.1964 
     27 N         -54.1524  -30.0912   15.1012 N.am      12 UNK        -0.4276 
     28 C         -53.1810  -29.7457   15.9598 C.2       12 UNK         0.5020 
     29 O         -52.0711  -30.2802   15.9820 O.2       12 UNK        -0.5489 
     30 CA        -53.4993  -28.5928   16.9345 C.3       11 UNK         0.0294 
     31 CB        -52.3947  -28.3973   17.9889 C.3       11 UNK        -0.2019 
     32 N         -53.7257  -27.3220   16.2367 N.am      11 UNK        -0.4493 
     33 C         -54.8497  -26.9999   15.5799 C.2       11 UNK         0.4932 
     34 O         -55.8126  -27.7651   15.4971 O.2       11 UNK        -0.5029 
     35 CA        -54.9126  -25.6445   14.8480 C.3       10 UNK         0.0280 
     36 CB        -56.2986  -24.9744   14.9657 C.3       10 UNK        -0.1976 
     37 N         -53.8278  -24.7076   15.1690 N.am      10 UNK        -0.4242 
     38 C         -53.6354  -24.0365   16.3143 C.2       10 UNK         0.5072 
     39 O         -54.3582  -24.1408   17.3070 O.2       10 UNK        -0.5224 
     40 CA        -52.4109  -23.0975   16.3387 C.3       9 UNK         0.0343 
     41 CB        -52.1264  -22.5114   17.7382 C.3       9 UNK        -0.2003 
     42 N         -51.1997  -23.7169   15.7828 N.am      9 UNK        -0.4272 
     43 C         -50.6075  -24.8439   16.2132 C.2       9 UNK         0.4988 
     44 O         -51.0437  -25.5258   17.1399 O.2       9 UNK        -0.5108 
     45 CA        -49.3376  -25.3278   15.4885 C.3       8 UNK         0.0248 
     46 CB        -49.6161  -26.6520   14.7679 C.3       8 UNK        -0.2001 
     47 N         -48.7978  -24.3651   14.5265 N.am      8 UNK        -0.4140 
     48 C         -48.0896  -23.2769   14.8642 C.2       8 UNK         0.5028 
     49 O         -47.7487  -23.0182   16.0192 O.2       8 UNK        -0.5428 
     50 CA        -47.7161  -22.2888   13.7415 C.3       7 UNK         0.0264 
     51 CB        -46.2619  -22.5113   13.2956 C.3       7 UNK        -0.1988 
     52 N         -48.5906  -22.3494   12.5663 N.am      7 UNK        -0.4454 
     53 C         -49.9150  -22.1315   12.5640 C.2       7 UNK         0.5027 
     54 O         -50.5532  -21.8089   13.5672 O.2       7 UNK        -0.5083 
     55 CA        -50.6673  -22.3498   11.2336 C.3       6 UNK         0.0844 
     56 C56       -50.9304  -20.9840   10.5488 C.3       14 UNK        -0.0967 
     57 S57       -51.6331  -21.0738    8.8646 S.3       14 UNK        -0.2604 
     58 C58       -53.2768  -21.8085    9.1455 C.3       14 UNK         0.0134 
     59 N         -50.0429  -23.3218   10.3264 N.am      6 UNK        -0.4116 
     60 C         -49.7037  -24.5867   10.6143 C.2       5 UNK         0.5034 
     61 O         -49.7535  -25.0611   11.7516 O.2       5 UNK        -0.5045 
     62 CA        -49.2307  -25.4659    9.4370 C.3       5 UNK         0.0224 
     63 CB        -48.6997  -24.6607    8.2286 C.3       5 UNK        -0.1978 
     64 N         -48.2485  -26.4741    9.8529 N.am      5 UNK        -0.4737 
     65 C         -47.0477  -26.2484   10.4085 C.2       4 UNK         0.5027 
     66 O         -46.5811  -25.1230   10.5946 O.2       4 UNK        -0.5211 
     67 CA        -46.2109  -27.4691   10.8342 C.3       4 UNK         0.0297 
     68 CB        -46.0504  -27.5086   12.3630 C.3       4 UNK        -0.1993 
     69 N         -46.7742  -28.7439   10.3793 N.am      4 UNK        -0.4486 
     70 C         -46.5067  -29.3085    9.1939 C.2       3 UNK         0.4961 
     71 O         -45.7469  -28.8136    8.3597 O.2       3 UNK        -0.5105 
     72 CA        -47.1830  -30.6556    8.8622 C.3       3 UNK         0.0299 
     73 CB        -47.7201  -31.4304   10.0846 C.3       3 UNK        -0.1972 
     74 N         -48.2267  -30.5278    7.8388 N.am      3 UNK        -0.4305 
     75 C         -49.2841  -29.7044    7.8655 C.2       2 UNK         0.5006 
     76 O         -49.5142  -28.8920    8.7618 O.2       2 UNK        -0.5106 
     77 CA        -50.2351  -29.7775    6.6702 C.3       2 UNK         0.0296 
     78 CB        -51.7095  -29.8219    7.1142 C.3       2 UNK        -0.2002 
     79 N         -49.9916  -28.6007    5.8457 N.am      2 UNK        -0.4032 
     80 C         -50.1598  -28.5409    4.5207 C.2       1 UNK         0.5000 
     81 O         -50.6071  -29.4721    3.8436 O.2       1 UNK        -0.5238 
     82 H82       -48.8486  -27.8415   -0.0100 H         1 UNK         0.0889 
     83 H83       -47.8433  -29.2407    0.3713 H         1 UNK         0.0889 
     84 H84       -47.1147  -27.6370    0.2462 H         1 UNK         0.0889 
     85 H85       -50.0747  -27.2100    1.7518 H         1 UNK         0.3028 
     86 H86       -48.9129  -26.7985    4.3637 H         1 UNK         0.0864 
     87 H87       -51.8957  -26.6173    3.6807 H         1 UNK         0.0720 
     88 H88       -50.7757  -25.3785    3.1926 H         1 UNK         0.0720 
     89 H89       -53.3986  -25.4794    5.4261 H         1 UNK         0.0814 
     90 H90       -52.7130  -26.9178    6.1504 H         1 UNK         0.0814 
     91 H91       -52.7291  -23.2069    6.8793 H         1 UNK         0.1469 
     92 H92       -53.8361  -23.7648   10.9842 H         1 UNK         0.1381 
     93 H93       -53.2926  -27.1626    8.4322 H         1 UNK         0.1206 
     94 H94       -54.7935  -26.0063   11.5452 H         1 UNK         0.0813 
     95 H95       -54.4081  -27.4136   10.6021 H         1 UNK         0.0813 
     96 H96       -52.2596  -28.3452   10.2432 H         1 UNK         0.0638 
     97 H97       -50.7617  -27.6810   10.7888 H         1 UNK         0.0638 
     98 H98       -51.3209  -30.2132   11.1613 H         1 UNK         0.0568 
     99 H99       -50.8771  -30.0565   14.5017 H         1 UNK         0.3450 
    100 H100      -49.1483  -29.8328   14.4273 H         1 UNK         0.3450 
    101 H101      -53.1569  -29.0516   13.0875 H         1 UNK         0.2987 
    102 H102      -55.0292  -31.0668   13.5062 H         1 UNK         0.0766 
    103 H103      -55.0356  -32.6147   15.4735 H         1 UNK         0.0798 
    104 H104      -54.2785  -33.3553   14.0743 H         1 UNK         0.0798 
    105 H105      -53.2793  -32.7422   15.3842 H         1 UNK         0.0798 
    106 H106      -55.0032  -29.5345   15.1362 H         1 UNK         0.3198 
    107 H107      -54.4129  -28.8647   17.4680 H         1 UNK         0.0843 
    108 H108      -51.4355  -28.1563   17.5293 H         1 UNK         0.0831 
    109 H109      -52.2529  -29.3045   18.5775 H         1 UNK         0.0831 
    110 H110      -52.6434  -27.5946   18.6834 H         1 UNK         0.0831 
    111 H111      -52.9708  -26.6490   16.2716 H         1 UNK         0.3133 
    112 H112      -54.7766  -25.8872   13.7974 H         1 UNK         0.0566 
    113 H113      -56.3326  -24.0319   14.4194 H         1 UNK         0.0814 
    114 H114      -56.5671  -24.7729   16.0029 H         1 UNK         0.0814 
    115 H115      -57.0790  -25.6136   14.5510 H         1 UNK         0.0814 
    116 H116      -53.1515  -24.5645   14.4314 H         1 UNK         0.3091 
    117 H117      -52.6553  -22.2636   15.6789 H         1 UNK         0.0702 
    118 H118      -51.2760  -21.8298   17.7163 H         1 UNK         0.0785 
    119 H119      -51.9117  -23.2922   18.4687 H         1 UNK         0.0785 
    120 H120      -52.9838  -21.9475   18.1077 H         1 UNK         0.0785 
    121 H121      -50.7788  -23.2151   15.0068 H         1 UNK         0.2998 
    122 H122      -48.5825  -25.5150   16.2547 H         1 UNK         0.0697 
    123 H123      -50.3517  -26.5317   13.9733 H         1 UNK         0.0825 
    124 H124      -50.0016  -27.4031   15.4584 H         1 UNK         0.0825 
    125 H125      -48.7097  -27.0586   14.3232 H         1 UNK         0.0825 
    126 H126      -49.0388  -24.5171   13.5500 H         1 UNK         0.3029 
    127 H127      -47.7988  -21.2830   14.1587 H         1 UNK         0.0897 
    128 H128      -46.1250  -23.4966   12.8474 H         1 UNK         0.0792 
    129 H129      -45.5779  -22.4409   14.1427 H         1 UNK         0.0792 
    130 H130      -45.9495  -21.7637   12.5664 H         1 UNK         0.0792 
    131 H131      -48.1606  -22.6499   11.7026 H         1 UNK         0.3086 
    132 H132      -51.6330  -22.7767   11.5061 H         1 UNK         0.0583 
    133 H133      -51.5938  -20.3745   11.1661 H         1 UNK         0.1020 
    134 H134      -50.0001  -20.4176   10.4679 H         1 UNK         0.1020 
    135 H135      -53.6428  -21.5337   10.1359 H         1 UNK         0.0694 
    136 H136      -53.9776  -21.3752    8.4306 H         1 UNK         0.0694 
    137 H137      -49.9785  -23.0213    9.3648 H         1 UNK         0.2989 
    138 H138      -50.1120  -26.0183    9.1056 H         1 UNK         0.1055 
    139 H139      -48.3479  -25.3262    7.4402 H         1 UNK         0.0806 
    140 H140      -47.8707  -24.0074    8.5030 H         1 UNK         0.0806 
    141 H141      -49.4797  -24.0390    7.7881 H         1 UNK         0.0806 
    142 H142      -48.5536  -27.4384    9.7485 H         1 UNK         0.3061 
    143 H143      -45.2166  -27.3407   10.4012 H         1 UNK         0.0734 
    144 H144      -45.6006  -26.5868   12.7345 H         1 UNK         0.0832 
    145 H145      -47.0110  -27.6247   12.8627 H         1 UNK         0.0832 
    146 H146      -45.4078  -28.3320   12.6744 H         1 UNK         0.0832 
    147 H147      -47.4970  -29.1482   10.9719 H         1 UNK         0.3156 
    148 H148      -46.3972  -31.2708    8.4209 H         1 UNK         0.0589 
    149 H149      -48.6562  -31.0161   10.4536 H         1 UNK         0.0808 
    150 H150      -47.9135  -32.4712    9.8254 H         1 UNK         0.0808 
    151 H151      -47.0039  -31.4365   10.9074 H         1 UNK         0.0808 
    152 H152      -48.1043  -31.1146    7.0250 H         1 UNK         0.3098 
    153 H153      -50.0154  -30.6821    6.0988 H         1 UNK         0.0720 
    154 H154      -52.3804  -29.8984    6.2585 H         1 UNK         0.0791 
    155 H155      -51.8974  -30.6842    7.7549 H         1 UNK         0.0791 
    156 H156      -51.9854  -28.9310    7.6776 H         1 UNK         0.0791 
    157 H157      -49.6323  -27.7940    6.3394 H         1 UNK         0.3028 
@<TRIPOS>BOND
     1    1    2 1    
     2    1   82 1    
     3    1   83 1    
     4    1   84 1    
     5    2    3 2    
     6    2    4 am   BACKBONE|DICT|INTERRES
     7    4    5 1    
     8    4   85 1    
     9    5    6 1    
    10    5   80 1    
    11    5   86 1    
    12    6    7 1    
    13    6   87 1    
    14    6   88 1    
    15    7    8 1    
    16    8    9 1    
    17    8   89 1    
    18    8   90 1    
    19    9   10 ar   
    20    9   14 ar   
    21   10   11 ar   
    22   10   91 1    
    23   11   12 ar   
    24   11   58 1    
    25   12   13 ar   
    26   12   92 1    
    27   13   14 ar   
    28   13   15 1    
    29   14   93 1    
    30   15   16 1    
    31   15   94 1    
    32   15   95 1    
    33   16   17 1    
    34   17   18 1    
    35   17   96 1    
    36   17   97 1    
    37   18   19 1    
    38   18   22 1    
    39   18   98 1    
    40   19   20 am   BACKBONE|DICT|INTERRES
    41   19   21 2    
    42   20   99 1    
    43   20  100 1    
    44   22   23 am   BACKBONE|DICT|INTERRES
    45   22  101 1    
    46   23   24 2    
    47   23   25 1    
    48   25   26 1    
    49   25   27 1    
    50   25  102 1    
    51   26  103 1    
    52   26  104 1    
    53   26  105 1    
    54   27   28 am   BACKBONE|DICT|INTERRES
    55   27  106 1    
    56   28   29 2    
    57   28   30 1    
    58   30   31 1    
    59   30   32 1    
    60   30  107 1    
    61   31  108 1    
    62   31  109 1    
    63   31  110 1    
    64   32   33 am   BACKBONE|DICT|INTERRES
    65   32  111 1    
    66   33   34 2    
    67   33   35 1    
    68   35   36 1    
    69   35   37 1    
    70   35  112 1    
    71   36  113 1    
    72   36  114 1    
    73   36  115 1    
    74   37   38 am   BACKBONE|DICT|INTERRES
    75   37  116 1    
    76   38   39 2    
    77   38   40 1    
    78   40   41 1    
    79   40   42 1    
    80   40  117 1    
    81   41  118 1    
    82   41  119 1    
    83   41  120 1    
    84   42   43 am   BACKBONE|DICT|INTERRES
    85   42  121 1    
    86   43   44 2    
    87   43   45 1    
    88   45   46 1    
    89   45   47 1    
    90   45  122 1    
    91   46  123 1    
    92   46  124 1    
    93   46  125 1    
    94   47   48 am   BACKBONE|DICT|INTERRES
    95   47  126 1    
    96   48   49 2    
    97   48   50 1    
    98   50   51 1    
    99   50   52 1    
   100   50  127 1    
   101   51  128 1    
   102   51  129 1    
   103   51  130 1    
   104   52   53 am   BACKBONE|DICT|INTERRES
   105   52  131 1    
   106   53   54 2    
   107   53   55 1    
   108   55   56 1    
   109   55   59 1    
   110   55  132 1    
   111   56   57 1    
   112   56  133 1    
   113   56  134 1    
   114   57   58 1    
   115   58  135 1    
   116   58  136 1    
   117   59   60 am   BACKBONE|DICT|INTERRES
   118   59  137 1    
   119   60   61 2    
   120   60   62 1    
   121   62   63 1    
   122   62   64 1    
   123   62  138 1    
   124   63  139 1    
   125   63  140 1    
   126   63  141 1    
   127   64   65 am   BACKBONE|DICT|INTERRES
   128   64  142 1    
   129   65   66 2    
   130   65   67 1    
   131   67   68 1    
   132   67   69 1    
   133   67  143 1    
   134   68  144 1    
   135   68  145 1    
   136   68  146 1    
   137   69   70 am   BACKBONE|DICT|INTERRES
   138   69  147 1    
   139   70   71 2    
   140   70   72 1    
   141   72   73 1    
   142   72   74 1    
   143   72  148 1    
   144   73  149 1    
   145   73  150 1    
   146   73  151 1    
   147   74   75 am   BACKBONE|DICT|INTERRES
   148   74  152 1    
   149   75   76 2    
   150   75   77 1    
   151   77   78 1    
   152   77   79 1    
   153   77  153 1    
   154   78  154 1    
   155   78  155 1    
   156   78  156 1    
   157   79   80 am   BACKBONE|DICT|INTERRES
   158   79  157 1    
   159   80   81 2    
@<TRIPOS>SUBSTRUCTURE
     1 UNK         1 GROUP             0       ****    0 ROOT    
