@<TRIPOS>MOLECULE
3R207
157   159    1
SMALL
USER_CHARGES


@<TRIPOS>ATOM
      1 CA        -48.3324  -28.6291    4.5947 C.3       0 UNK        -0.1975 
      2 C         -47.1986  -28.4759    5.6028 C.2       0 UNK         0.4852 
      3 O         -46.0949  -28.0961    5.2167 O.2       0 UNK        -0.5216 
      4 N         -47.4061  -28.7571    6.8936 N.am      1 UNK        -0.4461 
      5 CA        -48.6331  -29.2028    7.5499 C.3       1 UNK         0.0864 
      6 C6        -48.8311  -30.7350    7.3807 C.3       14 UNK        -0.0898 
      7 S7        -50.2207  -31.4744    8.3091 S.3       14 UNK        -0.2598 
      8 C8        -51.5440  -31.5231    7.0608 C.3       14 UNK         0.0286 
      9 C9        -52.2996  -30.2052    7.0126 C.ar      14 UNK        -0.0844 
     10 C10       -51.9599  -29.2221    6.0792 C.ar      14 UNK        -0.0881 
     11 C11       -52.6451  -28.0035    6.0520 C.ar      14 UNK        -0.0643 
     12 C12       -53.6920  -27.7839    6.9512 C.ar      14 UNK        -0.0930 
     13 C13       -54.0494  -28.7642    7.8805 C.ar      14 UNK        -0.0827 
     14 C14       -53.3495  -29.9735    7.9054 C.ar      14 UNK        -0.1249 
     15 C15       -55.2081  -28.5204    8.8351 C.3       14 UNK         0.0141 
     16 S16       -54.6842  -28.5911   10.5759 S.3       14 UNK        -0.2313 
     17 C17       -56.0645  -27.7218   11.3888 C.3       14 UNK        -0.0915 
     18 CA        -55.5822  -26.4059   12.0712 C.3       13 UNK         0.0968 
     19 C         -56.7370  -25.4505   12.5086 C.2       13 UNK         0.5732 
     20 N         -57.8205  -25.3630   11.7477 N.am      13 UNK        -0.7310 
     21 O         -56.6433  -24.7362   13.5055 O.2       13 UNK        -0.5035 
     22 N         -54.6038  -26.6520   13.1443 N.am      13 UNK        -0.4233 
     23 C         -54.8541  -27.2738   14.3045 C.2       13 UNK         0.4989 
     24 O         -55.9241  -27.8168   14.5887 O.2       13 UNK        -0.4996 
     25 CA        -53.7132  -27.2439   15.3321 C.3       12 UNK         0.0216 
     26 CB        -54.2115  -27.3408   16.7890 C.3       12 UNK        -0.1964 
     27 N         -52.6644  -28.2310   15.0717 N.am      12 UNK        -0.4276 
     28 C         -52.7601  -29.5699   15.0711 C.2       12 UNK         0.5020 
     29 O         -53.8133  -30.1947   15.1985 O.2       12 UNK        -0.5489 
     30 CA        -51.4413  -30.3621   14.9495 C.3       11 UNK         0.0294 
     31 CB        -51.2564  -30.9023   13.5223 C.3       11 UNK        -0.2019 
     32 N         -50.2581  -29.5847   15.3369 N.am      11 UNK        -0.4493 
     33 C         -49.9739  -29.1953   16.5886 C.2       11 UNK         0.4932 
     34 O         -50.6213  -29.5393   17.5777 O.2       11 UNK        -0.5029 
     35 CA        -48.7947  -28.2201   16.7724 C.3       10 UNK         0.0280 
     36 CB        -47.7150  -28.3300   15.6726 C.3       10 UNK        -0.1976 
     37 N         -49.2649  -26.8348   16.9115 N.am      10 UNK        -0.4242 
     38 C         -49.9871  -26.1377   16.0223 C.2       10 UNK         0.5072 
     39 O         -50.3214  -26.5695   14.9145 O.2       10 UNK        -0.5224 
     40 CA        -50.4115  -24.7246   16.4415 C.3       9 UNK         0.0343 
     41 CB        -49.2495  -23.7241   16.3123 C.3       9 UNK        -0.2003 
     42 N         -51.5133  -24.2995   15.5856 N.am      9 UNK        -0.4272 
     43 C         -52.5208  -23.4890   15.9247 C.2       9 UNK         0.4988 
     44 O         -52.6152  -22.9488   17.0280 O.2       9 UNK        -0.5108 
     45 CA        -53.5927  -23.2332   14.8411 C.3       8 UNK         0.0248 
     46 CB        -54.6340  -22.1832   15.2711 C.3       8 UNK        -0.2001 
     47 N         -52.9915  -22.8156   13.5717 N.am      8 UNK        -0.4140 
     48 C         -52.4141  -23.6294   12.6792 C.2       8 UNK         0.5028 
     49 O         -52.4024  -24.8585   12.7871 O.2       8 UNK        -0.5428 
     50 CA        -51.6673  -22.9309   11.5360 C.3       7 UNK         0.0264 
     51 CB        -50.3987  -22.2458   12.0753 C.3       7 UNK        -0.1988 
     52 N         -51.2583  -23.8653   10.4894 N.am      7 UNK        -0.4454 
     53 C         -51.8885  -24.0406    9.3198 C.2       7 UNK         0.5027 
     54 O         -52.9776  -23.5307    9.0483 O.2       7 UNK        -0.5083 
     55 CA        -51.1323  -24.8803    8.2608 C.3       6 UNK         0.0844 
     56 C56       -51.7693  -24.7949    6.8453 C.3       14 UNK        -0.0967 
     57 S57       -50.9218  -25.8684    5.6340 S.3       14 UNK        -0.2604 
     58 C58       -52.2701  -26.9354    5.0360 C.3       14 UNK         0.0134 
     59 N         -49.6981  -24.5533    8.2827 N.am      6 UNK        -0.4116 
     60 C         -49.1419  -23.3764    7.9539 C.2       5 UNK         0.5034 
     61 O         -49.7660  -22.4330    7.4667 O.2       5 UNK        -0.5045 
     62 CA        -47.6423  -23.1909    8.2344 C.3       5 UNK         0.0224 
     63 CB        -47.4181  -22.1038    9.3008 C.3       5 UNK        -0.1978 
     64 N         -46.9821  -24.4184    8.6866 N.am      5 UNK        -0.4737 
     65 C         -45.8415  -24.9050    8.1790 C.2       4 UNK         0.5027 
     66 O         -45.2750  -24.4195    7.1990 O.2       4 UNK        -0.5211 
     67 CA        -45.2219  -26.1395    8.8698 C.3       4 UNK         0.0297 
     68 CB        -43.6822  -26.0607    8.9405 C.3       4 UNK        -0.1993 
     69 N         -45.7968  -26.4431   10.1881 N.am      4 UNK        -0.4486 
     70 C         -45.7593  -25.6877   11.2992 C.2       3 UNK         0.4961 
     71 O         -45.1345  -24.6302   11.3868 O.2       3 UNK        -0.5105 
     72 CA        -46.5826  -26.1854   12.5073 C.3       3 UNK         0.0299 
     73 CB        -47.0797  -25.0305   13.4002 C.3       3 UNK        -0.1972 
     74 N         -47.6987  -27.0683   12.1412 N.am      3 UNK        -0.4305 
     75 C         -48.7449  -26.7776   11.3541 C.2       2 UNK         0.5006 
     76 O         -48.9311  -25.6861   10.8088 O.2       2 UNK        -0.5106 
     77 CA        -49.6951  -27.9485   11.0512 C.3       2 UNK         0.0296 
     78 CB        -51.1478  -27.5885   11.3966 C.3       2 UNK        -0.2002 
     79 N         -49.6163  -28.3844    9.6526 N.am      2 UNK        -0.4032 
     80 C         -48.4958  -28.7644    9.0188 C.2       1 UNK         0.5000 
     81 O         -47.3761  -28.7740    9.5432 O.2       1 UNK        -0.5238 
     82 H82       -49.2170  -28.0823    4.9100 H         1 UNK         0.0889 
     83 H83       -48.5917  -29.6772    4.4548 H         1 UNK         0.0889 
     84 H84       -48.0338  -28.2308    3.6252 H         1 UNK         0.0889 
     85 H85       -46.6441  -28.6492    7.5514 H         1 UNK         0.3028 
     86 H86       -49.4819  -28.6663    7.1265 H         1 UNK         0.0864 
     87 H87       -48.9435  -30.9870    6.3270 H         1 UNK         0.0720 
     88 H88       -47.9270  -31.2552    7.7033 H         1 UNK         0.0720 
     89 H89       -52.2349  -32.3277    7.3177 H         1 UNK         0.0814 
     90 H90       -51.1388  -31.7791    6.0808 H         1 UNK         0.0814 
     91 H91       -51.1604  -29.4043    5.3755 H         1 UNK         0.1469 
     92 H92       -54.2394  -26.8524    6.9197 H         1 UNK         0.1381 
     93 H93       -53.6208  -30.7335    8.6258 H         1 UNK         0.1206 
     94 H94       -55.9852  -29.2661    8.6621 H         1 UNK         0.0813 
     95 H95       -55.6595  -27.5475    8.6344 H         1 UNK         0.0813 
     96 H96       -56.5239  -28.3964   12.1118 H         1 UNK         0.0638 
     97 H97       -56.8347  -27.5246   10.6434 H         1 UNK         0.0638 
     98 H98       -55.0346  -25.8298   11.3242 H         1 UNK         0.0568 
     99 H99       -58.5552  -24.7296   12.0214 H         1 UNK         0.3450 
    100 H100      -57.9204  -25.9130   10.9100 H         1 UNK         0.3450 
    101 H101      -53.7094  -26.1831   13.0172 H         1 UNK         0.2987 
    102 H102      -53.2306  -26.2767   15.2281 H         1 UNK         0.0766 
    103 H103      -54.9419  -26.5593   17.0022 H         1 UNK         0.0798 
    104 H104      -53.3904  -27.2208   17.4959 H         1 UNK         0.0798 
    105 H105      -54.6916  -28.2984   16.9929 H         1 UNK         0.0798 
    106 H106      -51.7406  -27.8295   14.9253 H         1 UNK         0.3198 
    107 H107      -51.5160  -31.2161   15.6265 H         1 UNK         0.0843 
    108 H108      -51.1757  -30.0991   12.7925 H         1 UNK         0.0831 
    109 H109      -52.1061  -31.5203   13.2283 H         1 UNK         0.0831 
    110 H110      -50.3638  -31.5228   13.4427 H         1 UNK         0.0831 
    111 H111      -49.6855  -29.2200   14.5908 H         1 UNK         0.3133 
    112 H112      -48.3216  -28.4843   17.7195 H         1 UNK         0.0566 
    113 H113      -46.8499  -27.7123   15.9140 H         1 UNK         0.0814 
    114 H114      -48.0805  -28.0090   14.6992 H         1 UNK         0.0814 
    115 H115      -47.3580  -29.3560   15.5729 H         1 UNK         0.0814 
    116 H116      -49.0648  -26.4013   17.8024 H         1 UNK         0.3091 
    117 H117      -50.7490  -24.7665   17.4793 H         1 UNK         0.0702 
    118 H118      -49.5364  -22.7399   16.6830 H         1 UNK         0.0785 
    119 H119      -48.9345  -23.6069   15.2750 H         1 UNK         0.0785 
    120 H120      -48.3801  -24.0450   16.8873 H         1 UNK         0.0785 
    121 H121      -51.5264  -24.7423   14.6695 H         1 UNK         0.2998 
    122 H122      -54.1276  -24.1706   14.6839 H         1 UNK         0.0697 
    123 H123      -54.1772  -21.2104   15.4569 H         1 UNK         0.0825 
    124 H124      -55.1404  -22.4880   16.1880 H         1 UNK         0.0825 
    125 H125      -55.4036  -22.0559   14.5094 H         1 UNK         0.0825 
    126 H126      -52.9247  -21.8187   13.4241 H         1 UNK         0.3029 
    127 H127      -52.3261  -22.1673   11.1162 H         1 UNK         0.0897 
    128 H128      -49.7031  -22.9685   12.5039 H         1 UNK         0.0792 
    129 H129      -50.6315  -21.5176   12.8531 H         1 UNK         0.0792 
    130 H130      -49.8783  -21.7070   11.2838 H         1 UNK         0.0792 
    131 H131      -50.4124  -24.3990   10.6695 H         1 UNK         0.3086 
    132 H132      -51.2121  -25.9170    8.5895 H         1 UNK         0.0583 
    133 H133      -52.8255  -25.0583    6.8897 H         1 UNK         0.1020 
    134 H134      -51.7460  -23.7713    6.4691 H         1 UNK         0.1020 
    135 H135      -53.1370  -26.3249    4.7781 H         1 UNK         0.0694 
    136 H136      -51.9510  -27.4114    4.1076 H         1 UNK         0.0694 
    137 H137      -49.1121  -25.2373    8.7396 H         1 UNK         0.2989 
    138 H138      -47.2045  -22.8458    7.2951 H         1 UNK         0.1055 
    139 H139      -47.8001  -22.4134   10.2741 H         1 UNK         0.0806 
    140 H140      -47.9159  -21.1712    9.0312 H         1 UNK         0.0806 
    141 H141      -46.3573  -21.8812    9.4177 H         1 UNK         0.0806 
    142 H142      -47.3634  -24.8592    9.5158 H         1 UNK         0.3061 
    143 H143      -45.4721  -26.9884    8.2335 H         1 UNK         0.0734 
    144 H144      -43.3452  -25.1823    9.4916 H         1 UNK         0.0832 
    145 H145      -43.2607  -26.9427    9.4223 H         1 UNK         0.0832 
    146 H146      -43.2474  -26.0009    7.9420 H         1 UNK         0.0832 
    147 H147      -46.3478  -27.2987   10.2173 H         1 UNK         0.3156 
    148 H148      -45.8999  -26.7916   13.1044 H         1 UNK         0.0589 
    149 H149      -47.6368  -25.4105   14.2552 H         1 UNK         0.0808 
    150 H150      -46.2463  -24.4468   13.7925 H         1 UNK         0.0808 
    151 H151      -47.7273  -24.3463   12.8523 H         1 UNK         0.0808 
    152 H152      -47.6070  -28.0224   12.4595 H         1 UNK         0.3098 
    153 H153      -49.4077  -28.8015   11.6684 H         1 UNK         0.0720 
    154 H154      -51.2401  -27.3071   12.4460 H         1 UNK         0.0791 
    155 H155      -51.8159  -28.4318   11.2281 H         1 UNK         0.0791 
    156 H156      -51.5181  -26.7512   10.8072 H         1 UNK         0.0791 
    157 H157      -50.4929  -28.4392    9.1538 H         1 UNK         0.3028 
@<TRIPOS>BOND
     1    1    2 1    
     2    1   82 1    
     3    1   83 1    
     4    1   84 1    
     5    2    3 2    
     6    2    4 am   BACKBONE|DICT|INTERRES
     7    4    5 1    
     8    4   85 1    
     9    5    6 1    
    10    5   80 1    
    11    5   86 1    
    12    6    7 1    
    13    6   87 1    
    14    6   88 1    
    15    7    8 1    
    16    8    9 1    
    17    8   89 1    
    18    8   90 1    
    19    9   10 ar   
    20    9   14 ar   
    21   10   11 ar   
    22   10   91 1    
    23   11   12 ar   
    24   11   58 1    
    25   12   13 ar   
    26   12   92 1    
    27   13   14 ar   
    28   13   15 1    
    29   14   93 1    
    30   15   16 1    
    31   15   94 1    
    32   15   95 1    
    33   16   17 1    
    34   17   18 1    
    35   17   96 1    
    36   17   97 1    
    37   18   19 1    
    38   18   22 1    
    39   18   98 1    
    40   19   20 am   BACKBONE|DICT|INTERRES
    41   19   21 2    
    42   20   99 1    
    43   20  100 1    
    44   22   23 am   BACKBONE|DICT|INTERRES
    45   22  101 1    
    46   23   24 2    
    47   23   25 1    
    48   25   26 1    
    49   25   27 1    
    50   25  102 1    
    51   26  103 1    
    52   26  104 1    
    53   26  105 1    
    54   27   28 am   BACKBONE|DICT|INTERRES
    55   27  106 1    
    56   28   29 2    
    57   28   30 1    
    58   30   31 1    
    59   30   32 1    
    60   30  107 1    
    61   31  108 1    
    62   31  109 1    
    63   31  110 1    
    64   32   33 am   BACKBONE|DICT|INTERRES
    65   32  111 1    
    66   33   34 2    
    67   33   35 1    
    68   35   36 1    
    69   35   37 1    
    70   35  112 1    
    71   36  113 1    
    72   36  114 1    
    73   36  115 1    
    74   37   38 am   BACKBONE|DICT|INTERRES
    75   37  116 1    
    76   38   39 2    
    77   38   40 1    
    78   40   41 1    
    79   40   42 1    
    80   40  117 1    
    81   41  118 1    
    82   41  119 1    
    83   41  120 1    
    84   42   43 am   BACKBONE|DICT|INTERRES
    85   42  121 1    
    86   43   44 2    
    87   43   45 1    
    88   45   46 1    
    89   45   47 1    
    90   45  122 1    
    91   46  123 1    
    92   46  124 1    
    93   46  125 1    
    94   47   48 am   BACKBONE|DICT|INTERRES
    95   47  126 1    
    96   48   49 2    
    97   48   50 1    
    98   50   51 1    
    99   50   52 1    
   100   50  127 1    
   101   51  128 1    
   102   51  129 1    
   103   51  130 1    
   104   52   53 am   BACKBONE|DICT|INTERRES
   105   52  131 1    
   106   53   54 2    
   107   53   55 1    
   108   55   56 1    
   109   55   59 1    
   110   55  132 1    
   111   56   57 1    
   112   56  133 1    
   113   56  134 1    
   114   57   58 1    
   115   58  135 1    
   116   58  136 1    
   117   59   60 am   BACKBONE|DICT|INTERRES
   118   59  137 1    
   119   60   61 2    
   120   60   62 1    
   121   62   63 1    
   122   62   64 1    
   123   62  138 1    
   124   63  139 1    
   125   63  140 1    
   126   63  141 1    
   127   64   65 am   BACKBONE|DICT|INTERRES
   128   64  142 1    
   129   65   66 2    
   130   65   67 1    
   131   67   68 1    
   132   67   69 1    
   133   67  143 1    
   134   68  144 1    
   135   68  145 1    
   136   68  146 1    
   137   69   70 am   BACKBONE|DICT|INTERRES
   138   69  147 1    
   139   70   71 2    
   140   70   72 1    
   141   72   73 1    
   142   72   74 1    
   143   72  148 1    
   144   73  149 1    
   145   73  150 1    
   146   73  151 1    
   147   74   75 am   BACKBONE|DICT|INTERRES
   148   74  152 1    
   149   75   76 2    
   150   75   77 1    
   151   77   78 1    
   152   77   79 1    
   153   77  153 1    
   154   78  154 1    
   155   78  155 1    
   156   78  156 1    
   157   79   80 am   BACKBONE|DICT|INTERRES
   158   79  157 1    
   159   80   81 2    
@<TRIPOS>SUBSTRUCTURE
     1 UNK         1 GROUP             0       ****    0 ROOT    
