@<TRIPOS>MOLECULE
3R207
157   159    1
SMALL
USER_CHARGES


@<TRIPOS>ATOM
      1 CA        -50.2206  -28.9073    9.2882 C.3       0 UNK        -0.1975 
      2 C         -49.4325  -29.3532    8.0704 C.2       0 UNK         0.4852 
      3 O         -48.3988  -30.0081    8.2112 O.2       0 UNK        -0.5216 
      4 N         -49.9037  -28.9987    6.8688 N.am      1 UNK        -0.4461 
      5 CA        -49.2957  -29.3437    5.5786 C.3       1 UNK         0.0864 
      6 C6        -50.3607  -29.4030    4.4506 C.3       14 UNK        -0.0898 
      7 S7        -51.3062  -27.8598    4.1787 S.3       14 UNK        -0.2598 
      8 C8        -52.9410  -28.2363    4.8934 C.3       14 UNK         0.0286 
      9 C9        -53.0721  -27.7388    6.3268 C.ar      14 UNK        -0.0844 
     10 C10       -52.9861  -26.3698    6.5954 C.ar      14 UNK        -0.0881 
     11 C11       -53.1432  -25.8872    7.8970 C.ar      14 UNK        -0.0643 
     12 C12       -53.4216  -26.7854    8.9297 C.ar      14 UNK        -0.0930 
     13 C13       -53.5124  -28.1605    8.6817 C.ar      14 UNK        -0.0827 
     14 C14       -53.3308  -28.6288    7.3746 C.ar      14 UNK        -0.1249 
     15 C15       -53.8416  -29.1527    9.7971 C.3       14 UNK         0.0141 
     16 S16       -53.1707  -28.6904   11.4335 S.3       14 UNK        -0.2313 
     17 C17       -53.5752  -30.1797   12.4025 C.3       14 UNK        -0.0915 
     18 CA        -55.0332  -30.1849   12.9361 C.3       13 UNK         0.0968 
     19 C         -55.4181  -31.5785   13.5201 C.2       13 UNK         0.5732 
     20 N         -55.9255  -31.6950   14.7416 N.am      13 UNK        -0.7310 
     21 O         -55.2644  -32.5889   12.8376 O.2       13 UNK        -0.5035 
     22 N         -55.2926  -29.0458   13.8316 N.am      13 UNK        -0.4233 
     23 C         -56.5049  -28.5397   14.0854 C.2       13 UNK         0.4989 
     24 O         -57.5349  -28.9220   13.5257 O.2       13 UNK        -0.4996 
     25 CA        -56.5748  -27.4455   15.1717 C.3       12 UNK         0.0216 
     26 CB        -58.0209  -27.0106   15.4896 C.3       12 UNK        -0.1964 
     27 N         -55.8780  -27.8142   16.4126 N.am      12 UNK        -0.4276 
     28 C         -56.0264  -28.9293   17.1440 C.2       12 UNK         0.5020 
     29 O         -56.7979  -29.8431   16.8478 O.2       12 UNK        -0.5489 
     30 CA        -55.1321  -29.0597   18.3961 C.3       11 UNK         0.0294 
     31 CB        -55.2688  -30.4323   19.0822 C.3       11 UNK        -0.2019 
     32 N         -53.7202  -28.8299   18.0773 N.am      11 UNK        -0.4493 
     33 C         -53.1522  -27.6278   17.9240 C.2       11 UNK         0.4932 
     34 O         -53.7572  -26.5704   18.1137 O.2       11 UNK        -0.5029 
     35 CA        -51.6963  -27.5779   17.4206 C.3       10 UNK         0.0280 
     36 CB        -51.0873  -28.9580   17.0802 C.3       10 UNK        -0.1976 
     37 N         -51.5766  -26.6677   16.2769 N.am      10 UNK        -0.4242 
     38 C         -52.2359  -26.7352   15.1113 C.2       10 UNK         0.5072 
     39 O         -53.0228  -27.6402   14.8277 O.2       10 UNK        -0.5224 
     40 CA        -52.0045  -25.6113   14.0821 C.3       9 UNK         0.0343 
     41 CB        -53.1434  -24.5763   14.1412 C.3       9 UNK        -0.2003 
     42 N         -50.6893  -24.9527   14.1258 N.am      9 UNK        -0.4272 
     43 C         -50.1394  -24.1946   15.0861 C.2       9 UNK         0.4988 
     44 O         -50.6653  -23.9774   16.1780 O.2       9 UNK        -0.5108 
     45 CA        -48.7524  -23.5977   14.7907 C.3       8 UNK         0.0248 
     46 CB        -47.6513  -24.6430   15.0319 C.3       8 UNK        -0.2001 
     47 N         -48.6403  -23.0612   13.4316 N.am      8 UNK        -0.4140 
     48 C         -49.2969  -21.9782   12.9889 C.2       8 UNK         0.5028 
     49 O         -50.0063  -21.2671   13.7024 O.2       8 UNK        -0.5428 
     50 CA        -49.1531  -21.6301   11.4960 C.3       7 UNK         0.0264 
     51 CB        -47.8674  -20.8270   11.2424 C.3       7 UNK        -0.1988 
     52 N         -49.1879  -22.8055   10.6204 N.am      7 UNK        -0.4454 
     53 C         -50.2469  -23.6207   10.4920 C.2       7 UNK         0.5027 
     54 O         -51.3182  -23.4384   11.0711 O.2       7 UNK        -0.5083 
     55 CA        -50.0702  -24.8802    9.6146 C.3       6 UNK         0.0844 
     56 C56       -50.1822  -24.6058    8.0904 C.3       14 UNK        -0.0967 
     57 S57       -51.5787  -23.5824    7.4979 S.3       14 UNK        -0.2604 
     58 C58       -53.0556  -24.3960    8.1976 C.3       14 UNK         0.0134 
     59 N         -48.8101  -25.5639    9.9166 N.am      6 UNK        -0.4116 
     60 C         -48.4645  -26.0931   11.0976 C.2       5 UNK         0.5034 
     61 O         -49.2161  -26.1577   12.0675 O.2       5 UNK        -0.5045 
     62 CA        -47.0143  -26.5827   11.2402 C.3       5 UNK         0.0224 
     63 CB        -46.8402  -28.0069   10.6951 C.3       5 UNK        -0.1978 
     64 N         -46.0651  -25.6859   10.5792 N.am      5 UNK        -0.4737 
     65 C         -45.7575  -24.4608   11.0244 C.2       4 UNK         0.5027 
     66 O         -46.2261  -23.9709   12.0509 O.2       4 UNK        -0.5211 
     67 CA        -44.7914  -23.6347   10.1600 C.3       4 UNK         0.0297 
     68 CB        -43.3334  -23.9996   10.4804 C.3       4 UNK        -0.1993 
     69 N         -45.0369  -23.7958    8.7239 N.am      4 UNK        -0.4486 
     70 C         -46.1428  -23.3694    8.0983 C.2       3 UNK         0.4961 
     71 O         -47.0689  -22.7878    8.6625 O.2       3 UNK        -0.5105 
     72 CA        -46.2555  -23.6876    6.5978 C.3       3 UNK         0.0299 
     73 CB        -45.4300  -22.6907    5.7688 C.3       3 UNK        -0.1972 
     74 N         -45.8736  -25.0615    6.2478 N.am      3 UNK        -0.4305 
     75 C         -46.4463  -26.1640    6.7495 C.2       2 UNK         0.5006 
     76 O         -47.2979  -26.1509    7.6408 O.2       2 UNK        -0.5106 
     77 CA        -45.9671  -27.5127    6.1943 C.3       2 UNK         0.0296 
     78 CB        -44.8383  -28.0833    7.0678 C.3       2 UNK        -0.2002 
     79 N         -47.0839  -28.4571    6.1722 N.am      2 UNK        -0.4032 
     80 C         -48.0661  -28.4554    5.2615 C.2       1 UNK         0.5000 
     81 O         -48.0224  -27.7828    4.2288 O.2       1 UNK        -0.5238 
     82 H82       -50.9751  -29.6535    9.5309 H         1 UNK         0.0889 
     83 H83       -50.7134  -27.9521    9.1135 H         1 UNK         0.0889 
     84 H84       -49.5734  -28.7957   10.1550 H         1 UNK         0.0889 
     85 H85       -50.7456  -28.4407    6.8061 H         1 UNK         0.3028 
     86 H86       -48.8981  -30.3577    5.6650 H         1 UNK         0.0864 
     87 H87       -51.0567  -30.2161    4.6601 H         1 UNK         0.0720 
     88 H88       -49.8868  -29.6750    3.5057 H         1 UNK         0.0720 
     89 H89       -53.7012  -27.7405    4.2882 H         1 UNK         0.0814 
     90 H90       -53.1542  -29.3036    4.8213 H         1 UNK         0.0814 
     91 H91       -52.7955  -25.6767    5.7871 H         1 UNK         0.1469 
     92 H92       -53.5732  -26.4067    9.9309 H         1 UNK         0.1381 
     93 H93       -53.4137  -29.6876    7.1688 H         1 UNK         0.1206 
     94 H94       -54.9258  -29.2427    9.8700 H         1 UNK         0.0813 
     95 H95       -53.4633  -30.1415    9.5334 H         1 UNK         0.0813 
     96 H96       -52.8723  -30.2411   13.2352 H         1 UNK         0.0638 
     97 H97       -53.3782  -31.0524   11.7773 H         1 UNK         0.0638 
     98 H98       -55.6861  -30.0645   12.0703 H         1 UNK         0.0568 
     99 H99       -56.1279  -30.8849   15.3180 H         1 UNK         0.3450 
    100 H100      -56.1667  -32.6126   15.0790 H         1 UNK         0.3450 
    101 H101      -54.4789  -28.6446   14.2945 H         1 UNK         0.2987 
    102 H102      -56.0482  -26.5804   14.7663 H         1 UNK         0.0766 
    103 H103      -58.5279  -26.6487   14.5942 H         1 UNK         0.0798 
    104 H104      -58.0404  -26.2021   16.2203 H         1 UNK         0.0798 
    105 H105      -58.6111  -27.8367   15.8882 H         1 UNK         0.0798 
    106 H106      -55.1820  -27.1527   16.7420 H         1 UNK         0.3198 
    107 H107      -55.4658  -28.3004   19.1070 H         1 UNK         0.0843 
    108 H108      -56.3011  -30.6178   19.3824 H         1 UNK         0.0831 
    109 H109      -54.6577  -30.4892   19.9830 H         1 UNK         0.0831 
    110 H110      -54.9708  -31.2467   18.4206 H         1 UNK         0.0831 
    111 H111      -53.1701  -29.6470   17.8547 H         1 UNK         0.3133 
    112 H112      -51.1064  -27.1410   18.2273 H         1 UNK         0.0566 
    113 H113      -50.0577  -28.8533   16.7378 H         1 UNK         0.0814 
    114 H114      -51.0628  -29.6090   17.9550 H         1 UNK         0.0814 
    115 H115      -51.6406  -29.4720   16.2930 H         1 UNK         0.0814 
    116 H116      -51.0551  -25.8113   16.4422 H         1 UNK         0.3091 
    117 H117      -52.0484  -26.0883   13.1014 H         1 UNK         0.0702 
    118 H118      -53.1798  -24.0661   15.1042 H         1 UNK         0.0785 
    119 H119      -54.1116  -25.0546   13.9888 H         1 UNK         0.0785 
    120 H120      -53.0292  -23.8206   13.3636 H         1 UNK         0.0785 
    121 H121      -50.1120  -25.1542   13.3111 H         1 UNK         0.2998 
    122 H122      -48.5917  -22.7729   15.4882 H         1 UNK         0.0697 
    123 H123      -47.7445  -25.4934   14.3561 H         1 UNK         0.0825 
    124 H124      -47.6958  -25.0294   16.0510 H         1 UNK         0.0825 
    125 H125      -46.6594  -24.2129   14.8912 H         1 UNK         0.0825 
    126 H126      -48.0010  -23.5358   12.8002 H         1 UNK         0.3029 
    127 H127      -50.0026  -20.9990   11.2262 H         1 UNK         0.0897 
    128 H128      -47.8014  -20.5023   10.2038 H         1 UNK         0.0792 
    129 H129      -47.8375  -19.9315   11.8646 H         1 UNK         0.0792 
    130 H130      -46.9745  -21.4104   11.4671 H         1 UNK         0.0792 
    131 H131      -48.3595  -22.9784   10.0553 H         1 UNK         0.3086 
    132 H132      -50.8726  -25.5676    9.8882 H         1 UNK         0.0583 
    133 H133      -49.2745  -24.1103    7.7441 H         1 UNK         0.1020 
    134 H134      -50.2093  -25.5559    7.5540 H         1 UNK         0.1020 
    135 H135      -53.0804  -24.2170    9.2726 H         1 UNK         0.0694 
    136 H136      -53.9427  -23.9088    7.7913 H         1 UNK         0.0694 
    137 H137      -48.1388  -25.6211    9.1527 H         1 UNK         0.2989 
    138 H138      -46.7765  -26.5997   12.3062 H         1 UNK         0.1055 
    139 H139      -47.4805  -28.7096   11.2292 H         1 UNK         0.0806 
    140 H140      -45.8145  -28.3557   10.8157 H         1 UNK         0.0806 
    141 H141      -47.0919  -28.0676    9.6367 H         1 UNK         0.0806 
    142 H142      -45.6751  -25.9932    9.7005 H         1 UNK         0.3061 
    143 H143      -44.9415  -22.5824   10.4109 H         1 UNK         0.0734 
    144 H144      -43.1252  -23.8692   11.5434 H         1 UNK         0.0832 
    145 H145      -43.1089  -25.0372   10.2301 H         1 UNK         0.0832 
    146 H146      -42.6358  -23.3631    9.9358 H         1 UNK         0.0832 
    147 H147      -44.3280  -24.2684    8.1820 H         1 UNK         0.3156 
    148 H148      -47.3040  -23.5654    6.3187 H         1 UNK         0.0589 
    149 H149      -44.3606  -22.7900    5.9589 H         1 UNK         0.0808 
    150 H150      -45.5957  -22.8297    4.7003 H         1 UNK         0.0808 
    151 H151      -45.7086  -21.6626    6.0053 H         1 UNK         0.0808 
    152 H152      -45.1706  -25.1655    5.5298 H         1 UNK         0.3098 
    153 H153      -45.5937  -27.3742    5.1775 H         1 UNK         0.0720 
    154 H154      -44.4830  -29.0377    6.6788 H         1 UNK         0.0791 
    155 H155      -45.1614  -28.2433    8.0969 H         1 UNK         0.0791 
    156 H156      -43.9826  -27.4073    7.0949 H         1 UNK         0.0791 
    157 H157      -47.2422  -29.0036    7.0141 H         1 UNK         0.3028 
@<TRIPOS>BOND
     1    1    2 1    
     2    1   82 1    
     3    1   83 1    
     4    1   84 1    
     5    2    3 2    
     6    2    4 am   BACKBONE|DICT|INTERRES
     7    4    5 1    
     8    4   85 1    
     9    5    6 1    
    10    5   80 1    
    11    5   86 1    
    12    6    7 1    
    13    6   87 1    
    14    6   88 1    
    15    7    8 1    
    16    8    9 1    
    17    8   89 1    
    18    8   90 1    
    19    9   10 ar   
    20    9   14 ar   
    21   10   11 ar   
    22   10   91 1    
    23   11   12 ar   
    24   11   58 1    
    25   12   13 ar   
    26   12   92 1    
    27   13   14 ar   
    28   13   15 1    
    29   14   93 1    
    30   15   16 1    
    31   15   94 1    
    32   15   95 1    
    33   16   17 1    
    34   17   18 1    
    35   17   96 1    
    36   17   97 1    
    37   18   19 1    
    38   18   22 1    
    39   18   98 1    
    40   19   20 am   BACKBONE|DICT|INTERRES
    41   19   21 2    
    42   20   99 1    
    43   20  100 1    
    44   22   23 am   BACKBONE|DICT|INTERRES
    45   22  101 1    
    46   23   24 2    
    47   23   25 1    
    48   25   26 1    
    49   25   27 1    
    50   25  102 1    
    51   26  103 1    
    52   26  104 1    
    53   26  105 1    
    54   27   28 am   BACKBONE|DICT|INTERRES
    55   27  106 1    
    56   28   29 2    
    57   28   30 1    
    58   30   31 1    
    59   30   32 1    
    60   30  107 1    
    61   31  108 1    
    62   31  109 1    
    63   31  110 1    
    64   32   33 am   BACKBONE|DICT|INTERRES
    65   32  111 1    
    66   33   34 2    
    67   33   35 1    
    68   35   36 1    
    69   35   37 1    
    70   35  112 1    
    71   36  113 1    
    72   36  114 1    
    73   36  115 1    
    74   37   38 am   BACKBONE|DICT|INTERRES
    75   37  116 1    
    76   38   39 2    
    77   38   40 1    
    78   40   41 1    
    79   40   42 1    
    80   40  117 1    
    81   41  118 1    
    82   41  119 1    
    83   41  120 1    
    84   42   43 am   BACKBONE|DICT|INTERRES
    85   42  121 1    
    86   43   44 2    
    87   43   45 1    
    88   45   46 1    
    89   45   47 1    
    90   45  122 1    
    91   46  123 1    
    92   46  124 1    
    93   46  125 1    
    94   47   48 am   BACKBONE|DICT|INTERRES
    95   47  126 1    
    96   48   49 2    
    97   48   50 1    
    98   50   51 1    
    99   50   52 1    
   100   50  127 1    
   101   51  128 1    
   102   51  129 1    
   103   51  130 1    
   104   52   53 am   BACKBONE|DICT|INTERRES
   105   52  131 1    
   106   53   54 2    
   107   53   55 1    
   108   55   56 1    
   109   55   59 1    
   110   55  132 1    
   111   56   57 1    
   112   56  133 1    
   113   56  134 1    
   114   57   58 1    
   115   58  135 1    
   116   58  136 1    
   117   59   60 am   BACKBONE|DICT|INTERRES
   118   59  137 1    
   119   60   61 2    
   120   60   62 1    
   121   62   63 1    
   122   62   64 1    
   123   62  138 1    
   124   63  139 1    
   125   63  140 1    
   126   63  141 1    
   127   64   65 am   BACKBONE|DICT|INTERRES
   128   64  142 1    
   129   65   66 2    
   130   65   67 1    
   131   67   68 1    
   132   67   69 1    
   133   67  143 1    
   134   68  144 1    
   135   68  145 1    
   136   68  146 1    
   137   69   70 am   BACKBONE|DICT|INTERRES
   138   69  147 1    
   139   70   71 2    
   140   70   72 1    
   141   72   73 1    
   142   72   74 1    
   143   72  148 1    
   144   73  149 1    
   145   73  150 1    
   146   73  151 1    
   147   74   75 am   BACKBONE|DICT|INTERRES
   148   74  152 1    
   149   75   76 2    
   150   75   77 1    
   151   77   78 1    
   152   77   79 1    
   153   77  153 1    
   154   78  154 1    
   155   78  155 1    
   156   78  156 1    
   157   79   80 am   BACKBONE|DICT|INTERRES
   158   79  157 1    
   159   80   81 2    
@<TRIPOS>SUBSTRUCTURE
     1 UNK         1 GROUP             0       ****    0 ROOT    
