@<TRIPOS>MOLECULE
3R207
157   159    1
SMALL
USER_CHARGES


@<TRIPOS>ATOM
      1 CA        -50.8894  -23.9303   11.5256 C.3       0 UNK        -0.1975 
      2 C         -51.4357  -24.4755   10.2138 C.2       0 UNK         0.4852 
      3 O         -52.4551  -23.9810    9.7361 O.2       0 UNK        -0.5216 
      4 N         -50.7562  -25.4857    9.6551 N.am      1 UNK        -0.4461 
      5 CA        -51.0100  -26.1876    8.3949 C.3       1 UNK         0.0864 
      6 C6        -52.4973  -26.5550    8.1409 C.3       14 UNK        -0.0898 
      7 S7        -52.7430  -27.7331    6.7686 S.3       14 UNK        -0.2598 
      8 C8        -53.2702  -29.2474    7.6454 C.3       14 UNK         0.0286 
      9 C9        -52.1742  -29.9055    8.4811 C.ar      14 UNK        -0.0844 
     10 C10       -50.8407  -29.9116    8.0590 C.ar      14 UNK        -0.0881 
     11 C11       -49.8446  -30.5030    8.8391 C.ar      14 UNK        -0.0643 
     12 C12       -50.1992  -31.1482   10.0288 C.ar      14 UNK        -0.0930 
     13 C13       -51.5342  -31.1904   10.4450 C.ar      14 UNK        -0.0827 
     14 C14       -52.5119  -30.5556    9.6722 C.ar      14 UNK        -0.1249 
     15 C15       -51.9248  -31.9543   11.7047 C.3       14 UNK         0.0141 
     16 S16       -51.9963  -30.8676   13.1635 S.3       14 UNK        -0.2313 
     17 C17       -53.7066  -31.1224   13.7489 C.3       14 UNK        -0.0915 
     18 CA        -54.7681  -30.3539   12.9152 C.3       13 UNK         0.0968 
     19 C         -56.2161  -30.6383   13.4148 C.2       13 UNK         0.5732 
     20 N         -57.0537  -29.6395   13.6731 N.am      13 UNK        -0.7310 
     21 O         -56.5957  -31.7977   13.5615 O.2       13 UNK        -0.5035 
     22 N         -54.4436  -28.9251   12.8002 N.am      13 UNK        -0.4233 
     23 C         -54.7718  -28.1496   11.7612 C.2       13 UNK         0.4989 
     24 O         -55.3332  -28.5626   10.7452 O.2       13 UNK        -0.4996 
     25 CA        -54.4271  -26.6559   11.9066 C.3       12 UNK         0.0216 
     26 CB        -55.1412  -25.7736   10.8585 C.3       12 UNK        -0.1964 
     27 N         -54.6772  -26.1393   13.2604 N.am      12 UNK        -0.4276 
     28 C         -55.8625  -26.0861   13.8939 C.2       12 UNK         0.5020 
     29 O         -56.8900  -26.6083   13.4593 O.2       12 UNK        -0.5489 
     30 CA        -55.9326  -25.3474   15.2475 C.3       11 UNK         0.0294 
     31 CB        -56.2150  -26.3437   16.3853 C.3       11 UNK        -0.2019 
     32 N         -54.7260  -24.5872   15.5795 N.am      11 UNK        -0.4493 
     33 C         -54.2530  -23.5162   14.9255 C.2       11 UNK         0.4932 
     34 O         -54.8728  -22.9317   14.0375 O.2       11 UNK        -0.5029 
     35 CA        -52.8298  -23.0417   15.2915 C.3       10 UNK         0.0280 
     36 CB        -52.8813  -21.6692   15.9828 C.3       10 UNK        -0.1976 
     37 N         -52.0694  -23.9744   16.1370 N.am      10 UNK        -0.4242 
     38 C         -51.7250  -25.2312   15.8204 C.2       10 UNK         0.5072 
     39 O         -51.9862  -25.7699   14.7389 O.2       10 UNK        -0.5224 
     40 CA        -51.0670  -26.0399   16.9441 C.3       9 UNK         0.0343 
     41 CB        -52.0858  -26.3524   18.0606 C.3       9 UNK        -0.2003 
     42 N         -50.5415  -27.2827   16.3924 N.am      9 UNK        -0.4272 
     43 C         -49.6322  -28.0748   16.9732 C.2       9 UNK         0.4988 
     44 O         -49.1211  -27.8401   18.0693 O.2       9 UNK        -0.5108 
     45 CA        -49.2236  -29.3546   16.2203 C.3       8 UNK         0.0248 
     46 CB        -49.9759  -30.5701   16.7873 C.3       8 UNK        -0.2001 
     47 N         -49.4465  -29.2927   14.7741 N.am      8 UNK        -0.4140 
     48 C         -48.7756  -28.5035   13.9266 C.2       8 UNK         0.5028 
     49 O         -47.8912  -27.7135   14.2677 O.2       8 UNK        -0.5428 
     50 CA        -49.2087  -28.5986   12.4570 C.3       7 UNK         0.0264 
     51 CB        -50.4570  -27.7375   12.2011 C.3       7 UNK        -0.1988 
     52 N         -48.1532  -28.1888   11.5360 N.am      7 UNK        -0.4454 
     53 C         -47.0105  -28.8402   11.3010 C.2       7 UNK         0.5027 
     54 O         -46.7188  -29.9138   11.8319 O.2       7 UNK        -0.5083 
     55 CA        -46.0191  -28.2059   10.2942 C.3       6 UNK         0.0844 
     56 C56       -46.1460  -28.7946    8.8584 C.3       14 UNK        -0.0967 
     57 S57       -47.8147  -28.7509    8.1107 S.3       14 UNK        -0.2604 
     58 C58       -48.3926  -30.4617    8.3819 C.3       14 UNK         0.0134 
     59 N         -45.9009  -26.7362   10.3253 N.am      6 UNK        -0.4116 
     60 C         -46.8141  -25.7846   10.0825 C.2       5 UNK         0.5034 
     61 O         -48.0121  -26.0070    9.8931 O.2       5 UNK        -0.5045 
     62 CA        -46.3113  -24.3299   10.0981 C.3       5 UNK         0.0224 
     63 CB        -44.9155  -24.1731    9.4620 C.3       5 UNK        -0.1978 
     64 N         -47.2493  -23.4882    9.3575 N.am      5 UNK        -0.4737 
     65 C         -47.9683  -22.4782    9.8619 C.2       4 UNK         0.5027 
     66 O         -47.8907  -22.1117   11.0352 O.2       4 UNK        -0.5211 
     67 CA        -48.9594  -21.7703    8.9114 C.3       4 UNK         0.0297 
     68 CB        -49.1557  -20.2784    9.2555 C.3       4 UNK        -0.1993 
     69 N         -48.6507  -21.9589    7.4886 N.am      4 UNK        -0.4486 
     70 C         -47.5647  -21.5281    6.8250 C.2       3 UNK         0.4961 
     71 O         -46.7060  -20.7955    7.3183 O.2       3 UNK        -0.5105 
     72 CA        -47.4002  -22.0178    5.3679 C.3       3 UNK         0.0299 
     73 CB        -45.9218  -22.0607    4.9251 C.3       3 UNK        -0.1972 
     74 N         -48.0536  -23.3077    5.0985 N.am      3 UNK        -0.4305 
     75 C         -47.8268  -24.4706    5.7273 C.2       2 UNK         0.5006 
     76 O         -46.9911  -24.6289    6.6187 O.2       2 UNK        -0.5106 
     77 CA        -48.7355  -25.6439    5.3328 C.3       2 UNK         0.0296 
     78 CB        -47.9147  -26.7911    4.7216 C.3       2 UNK        -0.2002 
     79 N         -49.4843  -26.1459    6.4857 N.am      2 UNK        -0.4032 
     80 C         -50.3460  -25.4337    7.2274 C.2       1 UNK         0.5000 
     81 O         -50.6168  -24.2476    7.0136 O.2       1 UNK        -0.5238 
     82 H82       -51.5170  -24.2576   12.3542 H         1 UNK         0.0889 
     83 H83       -50.8835  -22.8407   11.5111 H         1 UNK         0.0889 
     84 H84       -49.8704  -24.2682   11.7150 H         1 UNK         0.0889 
     85 H85       -49.8508  -25.7282   10.0498 H         1 UNK         0.3028 
     86 H86       -50.4731  -27.1288    8.5197 H         1 UNK         0.0864 
     87 H87       -53.0873  -25.6644    7.9208 H         1 UNK         0.0720 
     88 H88       -52.9192  -26.9872    9.0485 H         1 UNK         0.0720 
     89 H89       -53.6174  -29.9711    6.9072 H         1 UNK         0.0814 
     90 H90       -54.1332  -29.0064    8.2683 H         1 UNK         0.0814 
     91 H91       -50.5664  -29.4410    7.1256 H         1 UNK         0.1469 
     92 H92       -49.4367  -31.6275   10.6275 H         1 UNK         0.1381 
     93 H93       -53.5445  -30.5812    9.9889 H         1 UNK         0.1206 
     94 H94       -51.2070  -32.7527   11.8985 H         1 UNK         0.0813 
     95 H95       -52.8844  -32.4488   11.5485 H         1 UNK         0.0813 
     96 H96       -53.7494  -30.8061   14.7925 H         1 UNK         0.0638 
     97 H97       -53.9131  -32.1942   13.7500 H         1 UNK         0.0638 
     98 H98       -54.7421  -30.7805   11.9126 H         1 UNK         0.0568 
     99 H99       -56.7931  -28.6725   13.5192 H         1 UNK         0.3450 
    100 H100      -57.9849  -29.8573   13.9893 H         1 UNK         0.3450 
    101 H101      -54.0009  -28.5042   13.6023 H         1 UNK         0.2987 
    102 H102      -53.3530  -26.5720   11.7347 H         1 UNK         0.0766 
    103 H103      -54.8542  -24.7272   10.9627 H         1 UNK         0.0798 
    104 H104      -56.2261  -25.8333   10.9485 H         1 UNK         0.0798 
    105 H105      -54.8892  -26.0765    9.8429 H         1 UNK         0.0798 
    106 H106      -53.8671  -25.7596   13.7401 H         1 UNK         0.3198 
    107 H107      -56.7657  -24.6441   15.1862 H         1 UNK         0.0843 
    108 H108      -55.4117  -27.0736   16.4931 H         1 UNK         0.0831 
    109 H109      -57.1351  -26.8998   16.1988 H         1 UNK         0.0831 
    110 H110      -56.3382  -25.8333   17.3407 H         1 UNK         0.0831 
    111 H111      -54.1426  -24.9764   16.3043 H         1 UNK         0.3133 
    112 H112      -52.2816  -22.9300   14.3542 H         1 UNK         0.0566 
    113 H113      -51.8805  -21.2764   16.1637 H         1 UNK         0.0814 
    114 H114      -53.4029  -21.7181   16.9395 H         1 UNK         0.0814 
    115 H115      -53.4046  -20.9383   15.3644 H         1 UNK         0.0814 
    116 H116      -51.8185  -23.6312   17.0537 H         1 UNK         0.3091 
    117 H117      -50.2398  -25.4524   17.3481 H         1 UNK         0.0702 
    118 H118      -51.6243  -26.9069   18.8778 H         1 UNK         0.0785 
    119 H119      -52.9202  -26.9479   17.6878 H         1 UNK         0.0785 
    120 H120      -52.4995  -25.4414   18.4944 H         1 UNK         0.0785 
    121 H121      -50.8841  -27.5022   15.4658 H         1 UNK         0.2998 
    122 H122      -48.1548  -29.5035   16.3879 H         1 UNK         0.0697 
    123 H123      -51.0522  -30.4892   16.6283 H         1 UNK         0.0825 
    124 H124      -49.8114  -30.6656   17.8616 H         1 UNK         0.0825 
    125 H125      -49.6374  -31.4982   16.3262 H         1 UNK         0.0825 
    126 H126      -50.1698  -29.8959   14.4029 H         1 UNK         0.3029 
    127 H127      -49.4463  -29.6407   12.2415 H         1 UNK         0.0897 
    128 H128      -50.8325  -27.8826   11.1878 H         1 UNK         0.0792 
    129 H129      -50.2478  -26.6781   12.3467 H         1 UNK         0.0792 
    130 H130      -51.2691  -27.9967   12.8804 H         1 UNK         0.0792 
    131 H131      -48.2903  -27.3240   11.0191 H         1 UNK         0.3086 
    132 H132      -45.0387  -28.5259   10.6514 H         1 UNK         0.0583 
    133 H133      -45.4718  -28.2602    8.1874 H         1 UNK         0.1020 
    134 H134      -45.7819  -29.8232    8.8529 H         1 UNK         0.1020 
    135 H135      -48.2894  -31.0242    7.4532 H         1 UNK         0.0694 
    136 H136      -47.7588  -30.9600    9.1166 H         1 UNK         0.0694 
    137 H137      -44.9650  -26.4124   10.5208 H         1 UNK         0.2989 
    138 H138      -46.2598  -24.0184   11.1435 H         1 UNK         0.1055 
    139 H139      -44.8802  -24.5976    8.4573 H         1 UNK         0.0806 
    140 H140      -44.1418  -24.6586   10.0572 H         1 UNK         0.0806 
    141 H141      -44.6372  -23.1217    9.3832 H         1 UNK         0.0806 
    142 H142      -47.3872  -23.7592    8.3880 H         1 UNK         0.3061 
    143 H143      -49.9198  -22.2623    9.0633 H         1 UNK         0.0734 
    144 H144      -48.2176  -19.7246    9.2140 H         1 UNK         0.0832 
    145 H145      -49.8592  -19.8019    8.5730 H         1 UNK         0.0832 
    146 H146      -49.5548  -20.1603   10.2636 H         1 UNK         0.0832 
    147 H147      -49.2864  -22.5847    7.0027 H         1 UNK         0.3156 
    148 H148      -47.9104  -21.2819    4.7448 H         1 UNK         0.0589 
    149 H149      -45.8253  -22.3989    3.8935 H         1 UNK         0.0808 
    150 H150      -45.4651  -21.0719    4.9832 H         1 UNK         0.0808 
    151 H151      -45.3314  -22.7281    5.5540 H         1 UNK         0.0808 
    152 H152      -48.7859  -23.2822    4.4014 H         1 UNK         0.3098 
    153 H153      -49.4607  -25.3061    4.5897 H         1 UNK         0.0720 
    154 H154      -47.3673  -26.4526    3.8409 H         1 UNK         0.0791 
    155 H155      -48.5546  -27.6163    4.4087 H         1 UNK         0.0791 
    156 H156      -47.1824  -27.1839    5.4287 H         1 UNK         0.0791 
    157 H157      -49.2638  -27.0881    6.7772 H         1 UNK         0.3028 
@<TRIPOS>BOND
     1    1    2 1    
     2    1   82 1    
     3    1   83 1    
     4    1   84 1    
     5    2    3 2    
     6    2    4 am   BACKBONE|DICT|INTERRES
     7    4    5 1    
     8    4   85 1    
     9    5    6 1    
    10    5   80 1    
    11    5   86 1    
    12    6    7 1    
    13    6   87 1    
    14    6   88 1    
    15    7    8 1    
    16    8    9 1    
    17    8   89 1    
    18    8   90 1    
    19    9   10 ar   
    20    9   14 ar   
    21   10   11 ar   
    22   10   91 1    
    23   11   12 ar   
    24   11   58 1    
    25   12   13 ar   
    26   12   92 1    
    27   13   14 ar   
    28   13   15 1    
    29   14   93 1    
    30   15   16 1    
    31   15   94 1    
    32   15   95 1    
    33   16   17 1    
    34   17   18 1    
    35   17   96 1    
    36   17   97 1    
    37   18   19 1    
    38   18   22 1    
    39   18   98 1    
    40   19   20 am   BACKBONE|DICT|INTERRES
    41   19   21 2    
    42   20   99 1    
    43   20  100 1    
    44   22   23 am   BACKBONE|DICT|INTERRES
    45   22  101 1    
    46   23   24 2    
    47   23   25 1    
    48   25   26 1    
    49   25   27 1    
    50   25  102 1    
    51   26  103 1    
    52   26  104 1    
    53   26  105 1    
    54   27   28 am   BACKBONE|DICT|INTERRES
    55   27  106 1    
    56   28   29 2    
    57   28   30 1    
    58   30   31 1    
    59   30   32 1    
    60   30  107 1    
    61   31  108 1    
    62   31  109 1    
    63   31  110 1    
    64   32   33 am   BACKBONE|DICT|INTERRES
    65   32  111 1    
    66   33   34 2    
    67   33   35 1    
    68   35   36 1    
    69   35   37 1    
    70   35  112 1    
    71   36  113 1    
    72   36  114 1    
    73   36  115 1    
    74   37   38 am   BACKBONE|DICT|INTERRES
    75   37  116 1    
    76   38   39 2    
    77   38   40 1    
    78   40   41 1    
    79   40   42 1    
    80   40  117 1    
    81   41  118 1    
    82   41  119 1    
    83   41  120 1    
    84   42   43 am   BACKBONE|DICT|INTERRES
    85   42  121 1    
    86   43   44 2    
    87   43   45 1    
    88   45   46 1    
    89   45   47 1    
    90   45  122 1    
    91   46  123 1    
    92   46  124 1    
    93   46  125 1    
    94   47   48 am   BACKBONE|DICT|INTERRES
    95   47  126 1    
    96   48   49 2    
    97   48   50 1    
    98   50   51 1    
    99   50   52 1    
   100   50  127 1    
   101   51  128 1    
   102   51  129 1    
   103   51  130 1    
   104   52   53 am   BACKBONE|DICT|INTERRES
   105   52  131 1    
   106   53   54 2    
   107   53   55 1    
   108   55   56 1    
   109   55   59 1    
   110   55  132 1    
   111   56   57 1    
   112   56  133 1    
   113   56  134 1    
   114   57   58 1    
   115   58  135 1    
   116   58  136 1    
   117   59   60 am   BACKBONE|DICT|INTERRES
   118   59  137 1    
   119   60   61 2    
   120   60   62 1    
   121   62   63 1    
   122   62   64 1    
   123   62  138 1    
   124   63  139 1    
   125   63  140 1    
   126   63  141 1    
   127   64   65 am   BACKBONE|DICT|INTERRES
   128   64  142 1    
   129   65   66 2    
   130   65   67 1    
   131   67   68 1    
   132   67   69 1    
   133   67  143 1    
   134   68  144 1    
   135   68  145 1    
   136   68  146 1    
   137   69   70 am   BACKBONE|DICT|INTERRES
   138   69  147 1    
   139   70   71 2    
   140   70   72 1    
   141   72   73 1    
   142   72   74 1    
   143   72  148 1    
   144   73  149 1    
   145   73  150 1    
   146   73  151 1    
   147   74   75 am   BACKBONE|DICT|INTERRES
   148   74  152 1    
   149   75   76 2    
   150   75   77 1    
   151   77   78 1    
   152   77   79 1    
   153   77  153 1    
   154   78  154 1    
   155   78  155 1    
   156   78  156 1    
   157   79   80 am   BACKBONE|DICT|INTERRES
   158   79  157 1    
   159   80   81 2    
@<TRIPOS>SUBSTRUCTURE
     1 UNK         1 GROUP             0       ****    0 ROOT    
