@<TRIPOS>MOLECULE
3R207
157   159    1
SMALL
USER_CHARGES


@<TRIPOS>ATOM
      1 CA        -53.6064  -24.0739    7.1188 C.3       0 UNK        -0.1975 
      2 C         -52.2400  -24.7412    7.1044 C.2       0 UNK         0.4852 
      3 O         -51.2796  -24.1758    7.6281 O.2       0 UNK        -0.5216 
      4 N         -52.1435  -25.9323    6.4949 N.am      1 UNK        -0.4461 
      5 CA        -50.9464  -26.7881    6.4420 C.3       1 UNK         0.0864 
      6 C6        -51.2095  -28.1250    5.7121 C.3       14 UNK        -0.0898 
      7 S7        -52.6301  -29.0338    6.4081 S.3       14 UNK        -0.2598 
      8 C8        -51.8676  -30.5932    6.9594 C.3       14 UNK         0.0286 
      9 C9        -51.3193  -30.5264    8.3799 C.ar      14 UNK        -0.0844 
     10 C10       -49.9576  -30.7242    8.6311 C.ar      14 UNK        -0.0881 
     11 C11       -49.4792  -30.8044    9.9446 C.ar      14 UNK        -0.0643 
     12 C12       -50.3753  -30.6649   11.0103 C.ar      14 UNK        -0.0930 
     13 C13       -51.7373  -30.4464   10.7744 C.ar      14 UNK        -0.0827 
     14 C14       -52.1967  -30.3654    9.4555 C.ar      14 UNK        -0.1249 
     15 C15       -52.7046  -30.2975   11.9449 C.3       14 UNK         0.0141 
     16 S16       -54.2021  -31.3226   11.7650 S.3       14 UNK        -0.2313 
     17 C17       -55.2326  -30.7415   13.1552 C.3       14 UNK        -0.0915 
     18 CA        -56.2423  -29.6436   12.7196 C.3       13 UNK         0.0968 
     19 C         -57.4027  -29.4544   13.7411 C.2       13 UNK         0.5732 
     20 N         -57.7733  -28.2379   14.1276 N.am      13 UNK        -0.7310 
     21 O         -58.0083  -30.4332   14.1720 O.2       13 UNK        -0.5035 
     22 N         -55.5474  -28.3856   12.4197 N.am      13 UNK        -0.4233 
     23 C         -55.6564  -27.6824   11.2868 C.2       13 UNK         0.4989 
     24 O         -56.3177  -28.0498   10.3143 O.2       13 UNK        -0.4996 
     25 CA        -54.8873  -26.3451   11.2192 C.3       12 UNK         0.0216 
     26 CB        -55.5939  -25.3024   10.3283 C.3       12 UNK        -0.1964 
     27 N         -54.5613  -25.7645   12.5295 N.am      12 UNK        -0.4276 
     28 C         -55.4088  -25.4057   13.5037 C.2       12 UNK         0.5020 
     29 O         -56.6328  -25.5372   13.4304 O.2       12 UNK        -0.5489 
     30 CA        -54.7592  -24.8701   14.7963 C.3       11 UNK         0.0294 
     31 CB        -55.7888  -24.6172   15.9176 C.3       11 UNK        -0.2019 
     32 N         -53.6693  -25.7223   15.2951 N.am      11 UNK        -0.4493 
     33 C         -53.7239  -27.0335   15.5775 C.2       11 UNK         0.4932 
     34 O         -54.7219  -27.7282   15.3849 O.2       11 UNK        -0.5029 
     35 CA        -52.4616  -27.7066   16.1516 C.3       10 UNK         0.0280 
     36 CB        -52.1640  -29.0279   15.4278 C.3       10 UNK        -0.1976 
     37 N         -51.2607  -26.8682   16.1036 N.am      10 UNK        -0.4242 
     38 C         -50.8970  -25.9927   17.0499 C.2       10 UNK         0.5072 
     39 O         -51.5660  -25.7519   18.0554 O.2       10 UNK        -0.5224 
     40 CA        -49.5651  -25.2539   16.8358 C.3       9 UNK         0.0343 
     41 CB        -48.3821  -26.1451   17.2465 C.3       9 UNK        -0.2003 
     42 N         -49.3792  -24.7939   15.4575 N.am      9 UNK        -0.4272 
     43 C         -50.1135  -23.8337   14.8751 C.2       9 UNK         0.4988 
     44 O         -51.0130  -23.2165   15.4467 O.2       9 UNK        -0.5108 
     45 CA        -49.8213  -23.5346   13.3943 C.3       8 UNK         0.0248 
     46 CB        -48.5345  -22.7087   13.2394 C.3       8 UNK        -0.2001 
     47 N         -49.7325  -24.7523   12.5870 N.am      8 UNK        -0.4140 
     48 C         -50.7434  -25.6137   12.4107 C.2       8 UNK         0.5028 
     49 O         -51.8788  -25.4354   12.8467 O.2       8 UNK        -0.5428 
     50 CA        -50.4400  -26.9159   11.6624 C.3       7 UNK         0.0264 
     51 CB        -50.5899  -26.7363   10.1485 C.3       7 UNK        -0.1988 
     52 N         -49.1120  -27.4421   11.9615 N.am      7 UNK        -0.4454 
     53 C         -48.7410  -27.9465   13.1442 C.2       7 UNK         0.5027 
     54 O         -49.4776  -28.0008   14.1283 O.2       7 UNK        -0.5083 
     55 CA        -47.2827  -28.4297   13.2542 C.3       6 UNK         0.0844 
     56 C56       -47.0546  -29.7781   12.5227 C.3       14 UNK        -0.0967 
     57 S57       -47.0365  -29.6625   10.6925 S.3       14 UNK        -0.2604 
     58 C58       -48.0102  -31.1227   10.2025 C.3       14 UNK         0.0134 
     59 N         -46.3329  -27.3990   12.8315 N.am      6 UNK        -0.4116 
     60 C         -46.2010  -26.1883   13.3907 C.2       5 UNK         0.5034 
     61 O         -46.8259  -25.8106   14.3815 O.2       5 UNK        -0.5045 
     62 CA        -45.2394  -25.2119   12.6931 C.3       5 UNK         0.0224 
     63 CB        -43.8074  -25.3988   13.2190 C.3       5 UNK        -0.1978 
     64 N         -45.2419  -25.3098   11.2275 N.am      5 UNK        -0.4737 
     65 C         -46.3212  -25.1497   10.4497 C.2       4 UNK         0.5027 
     66 O         -47.4630  -24.9859   10.8853 O.2       4 UNK        -0.5211 
     67 CA        -46.0879  -25.2303    8.9328 C.3       4 UNK         0.0297 
     68 CB        -46.2117  -26.6862    8.4576 C.3       4 UNK        -0.1993 
     69 N         -47.0429  -24.3973    8.1981 N.am      4 UNK        -0.4486 
     70 C         -47.0831  -23.0565    8.2571 C.2       3 UNK         0.4961 
     71 O         -46.2374  -22.3793    8.8456 O.2       3 UNK        -0.5105 
     72 CA        -48.2685  -22.3529    7.5631 C.3       3 UNK         0.0299 
     73 CB        -47.9680  -20.8850    7.1895 C.3       3 UNK        -0.1972 
     74 N         -48.8030  -23.0952    6.4170 N.am      3 UNK        -0.4305 
     75 C         -48.1678  -23.3954    5.2711 C.2       2 UNK         0.5006 
     76 O         -47.0336  -23.0014    4.9944 O.2       2 UNK        -0.5106 
     77 CA        -48.9240  -24.2956    4.2670 C.3       2 UNK         0.0296 
     78 CB        -47.9684  -25.1155    3.3732 C.3       2 UNK        -0.2002 
     79 N         -49.9223  -25.1746    4.8927 N.am      2 UNK        -0.4032 
     80 C         -49.7051  -26.0907    5.8512 C.2       1 UNK         0.5000 
     81 O         -48.5946  -26.3515    6.3135 O.2       1 UNK        -0.5238 
     82 H82       -54.3901  -24.7409    6.7599 H         1 UNK         0.0889 
     83 H83       -53.5962  -23.1857    6.4879 H         1 UNK         0.0889 
     84 H84       -53.8611  -23.7675    8.1327 H         1 UNK         0.0889 
     85 H85       -52.9731  -26.3453    6.0917 H         1 UNK         0.3028 
     86 H86       -50.6935  -27.0287    7.4724 H         1 UNK         0.0864 
     87 H87       -50.3202  -28.7569    5.7530 H         1 UNK         0.0720 
     88 H88       -51.4103  -27.9514    4.6531 H         1 UNK         0.0720 
     89 H89       -51.0991  -30.9052    6.2506 H         1 UNK         0.0814 
     90 H90       -52.6305  -31.3724    6.9269 H         1 UNK         0.0814 
     91 H91       -49.2748  -30.8621    7.8039 H         1 UNK         0.1469 
     92 H92       -50.0128  -30.7390   12.0255 H         1 UNK         0.1381 
     93 H93       -53.2498  -30.2112    9.2625 H         1 UNK         0.1206 
     94 H94       -52.9839  -29.2486   12.0346 H         1 UNK         0.0813 
     95 H95       -52.2149  -30.5815   12.8765 H         1 UNK         0.0813 
     96 H96       -54.6009  -30.3888   13.9707 H         1 UNK         0.0638 
     97 H97       -55.7551  -31.6201   13.5372 H         1 UNK         0.0638 
     98 H98       -56.7410  -30.0044   11.8186 H         1 UNK         0.0568 
     99 H99       -58.5319  -28.1454   14.7831 H         1 UNK         0.3450 
    100 H100      -57.2990  -27.4068   13.7904 H         1 UNK         0.3450 
    101 H101      -55.0521  -27.9777   13.2028 H         1 UNK         0.2987 
    102 H102      -53.9295  -26.5801   10.7532 H         1 UNK         0.0766 
    103 H103      -55.0309  -24.3702   10.2876 H         1 UNK         0.0798 
    104 H104      -56.5952  -25.0731   10.6947 H         1 UNK         0.0798 
    105 H105      -55.6960  -25.6634    9.3042 H         1 UNK         0.0798 
    106 H106      -53.5609  -25.6318   12.7090 H         1 UNK         0.3198 
    107 H107      -54.3068  -23.9117   14.5365 H         1 UNK         0.0843 
    108 H108      -56.2967  -25.5361   16.2130 H         1 UNK         0.0831 
    109 H109      -56.5549  -23.9118   15.5935 H         1 UNK         0.0831 
    110 H110      -55.3147  -24.1958   16.8040 H         1 UNK         0.0831 
    111 H111      -52.7788  -25.2593   15.4202 H         1 UNK         0.3133 
    112 H112      -52.6807  -27.9466   17.1939 H         1 UNK         0.0566 
    113 H113      -51.2693  -29.5080   15.8248 H         1 UNK         0.0814 
    114 H114      -52.9845  -29.7364   15.5406 H         1 UNK         0.0814 
    115 H115      -52.0087  -28.8585   14.3635 H         1 UNK         0.0814 
    116 H116      -50.6265  -27.0408   15.3264 H         1 UNK         0.3091 
    117 H117      -49.5663  -24.3748   17.4838 H         1 UNK         0.0702 
    118 H118      -47.4389  -25.6017   17.1876 H         1 UNK         0.0785 
    119 H119      -48.2991  -27.0255   16.6075 H         1 UNK         0.0785 
    120 H120      -48.4921  -26.4942   18.2741 H         1 UNK         0.0785 
    121 H121      -48.6295  -25.2325   14.9297 H         1 UNK         0.2998 
    122 H122      -50.6519  -22.9433   13.0034 H         1 UNK         0.0697 
    123 H123      -47.6655  -23.2381   13.6290 H         1 UNK         0.0825 
    124 H124      -48.6105  -21.7648   13.7805 H         1 UNK         0.0825 
    125 H125      -48.3389  -22.4701   12.1935 H         1 UNK         0.0825 
    126 H126      -48.8465  -24.9407   12.1209 H         1 UNK         0.3029 
    127 H127      -51.1718  -27.6559   11.9899 H         1 UNK         0.0897 
    128 H128      -49.8567  -26.0355    9.7461 H         1 UNK         0.0792 
    129 H129      -51.5799  -26.3573    9.8924 H         1 UNK         0.0792 
    130 H130      -50.4643  -27.6916    9.6385 H         1 UNK         0.0792 
    131 H131      -48.4288  -27.4102   11.2181 H         1 UNK         0.3086 
    132 H132      -47.0964  -28.6052   14.3161 H         1 UNK         0.0583 
    133 H133      -46.0925  -30.1908   12.8302 H         1 UNK         0.1020 
    134 H134      -47.7932  -30.5114   12.8503 H         1 UNK         0.1020 
    135 H135      -47.5587  -31.5383    9.3004 H         1 UNK         0.0694 
    136 H136      -47.9255  -31.9055   10.9574 H         1 UNK         0.0694 
    137 H137      -45.7918  -27.6059   12.0050 H         1 UNK         0.2989 
    138 H138      -45.5654  -24.2020   12.9494 H         1 UNK         0.1055 
    139 H139      -43.7770  -25.3123   14.3063 H         1 UNK         0.0806 
    140 H140      -43.1345  -24.6404   12.8184 H         1 UNK         0.0806 
    141 H141      -43.4041  -26.3783   12.9589 H         1 UNK         0.0806 
    142 H142      -44.3452  -25.4539   10.7845 H         1 UNK         0.3061 
    143 H143      -45.0818  -24.8697    8.7091 H         1 UNK         0.0734 
    144 H144      -47.2053  -27.0917    8.6549 H         1 UNK         0.0832 
    145 H145      -46.0245  -26.7714    7.3870 H         1 UNK         0.0832 
    146 H146      -45.4911  -27.3301    8.9633 H         1 UNK         0.0832 
    147 H147      -47.7588  -24.8884    7.6755 H         1 UNK         0.3156 
    148 H148      -49.0717  -22.3403    8.3014 H         1 UNK         0.0589 
    149 H149      -47.1184  -20.8041    6.5109 H         1 UNK         0.0808 
    150 H150      -48.8265  -20.4129    6.7121 H         1 UNK         0.0808 
    151 H151      -47.7296  -20.2972    8.0767 H         1 UNK         0.0808 
    152 H152      -49.7250  -23.4932    6.5753 H         1 UNK         0.3098 
    153 H153      -49.4803  -23.6167    3.6191 H         1 UNK         0.0720 
    154 H154      -48.5198  -25.7339    2.6650 H         1 UNK         0.0791 
    155 H155      -47.3270  -25.7712    3.9630 H         1 UNK         0.0791 
    156 H156      -47.3173  -24.4625    2.7907 H         1 UNK         0.0791 
    157 H157      -50.8796  -25.0247    4.6047 H         1 UNK         0.3028 
@<TRIPOS>BOND
     1    1    2 1    
     2    1   82 1    
     3    1   83 1    
     4    1   84 1    
     5    2    3 2    
     6    2    4 am   BACKBONE|DICT|INTERRES
     7    4    5 1    
     8    4   85 1    
     9    5    6 1    
    10    5   80 1    
    11    5   86 1    
    12    6    7 1    
    13    6   87 1    
    14    6   88 1    
    15    7    8 1    
    16    8    9 1    
    17    8   89 1    
    18    8   90 1    
    19    9   10 ar   
    20    9   14 ar   
    21   10   11 ar   
    22   10   91 1    
    23   11   12 ar   
    24   11   58 1    
    25   12   13 ar   
    26   12   92 1    
    27   13   14 ar   
    28   13   15 1    
    29   14   93 1    
    30   15   16 1    
    31   15   94 1    
    32   15   95 1    
    33   16   17 1    
    34   17   18 1    
    35   17   96 1    
    36   17   97 1    
    37   18   19 1    
    38   18   22 1    
    39   18   98 1    
    40   19   20 am   BACKBONE|DICT|INTERRES
    41   19   21 2    
    42   20   99 1    
    43   20  100 1    
    44   22   23 am   BACKBONE|DICT|INTERRES
    45   22  101 1    
    46   23   24 2    
    47   23   25 1    
    48   25   26 1    
    49   25   27 1    
    50   25  102 1    
    51   26  103 1    
    52   26  104 1    
    53   26  105 1    
    54   27   28 am   BACKBONE|DICT|INTERRES
    55   27  106 1    
    56   28   29 2    
    57   28   30 1    
    58   30   31 1    
    59   30   32 1    
    60   30  107 1    
    61   31  108 1    
    62   31  109 1    
    63   31  110 1    
    64   32   33 am   BACKBONE|DICT|INTERRES
    65   32  111 1    
    66   33   34 2    
    67   33   35 1    
    68   35   36 1    
    69   35   37 1    
    70   35  112 1    
    71   36  113 1    
    72   36  114 1    
    73   36  115 1    
    74   37   38 am   BACKBONE|DICT|INTERRES
    75   37  116 1    
    76   38   39 2    
    77   38   40 1    
    78   40   41 1    
    79   40   42 1    
    80   40  117 1    
    81   41  118 1    
    82   41  119 1    
    83   41  120 1    
    84   42   43 am   BACKBONE|DICT|INTERRES
    85   42  121 1    
    86   43   44 2    
    87   43   45 1    
    88   45   46 1    
    89   45   47 1    
    90   45  122 1    
    91   46  123 1    
    92   46  124 1    
    93   46  125 1    
    94   47   48 am   BACKBONE|DICT|INTERRES
    95   47  126 1    
    96   48   49 2    
    97   48   50 1    
    98   50   51 1    
    99   50   52 1    
   100   50  127 1    
   101   51  128 1    
   102   51  129 1    
   103   51  130 1    
   104   52   53 am   BACKBONE|DICT|INTERRES
   105   52  131 1    
   106   53   54 2    
   107   53   55 1    
   108   55   56 1    
   109   55   59 1    
   110   55  132 1    
   111   56   57 1    
   112   56  133 1    
   113   56  134 1    
   114   57   58 1    
   115   58  135 1    
   116   58  136 1    
   117   59   60 am   BACKBONE|DICT|INTERRES
   118   59  137 1    
   119   60   61 2    
   120   60   62 1    
   121   62   63 1    
   122   62   64 1    
   123   62  138 1    
   124   63  139 1    
   125   63  140 1    
   126   63  141 1    
   127   64   65 am   BACKBONE|DICT|INTERRES
   128   64  142 1    
   129   65   66 2    
   130   65   67 1    
   131   67   68 1    
   132   67   69 1    
   133   67  143 1    
   134   68  144 1    
   135   68  145 1    
   136   68  146 1    
   137   69   70 am   BACKBONE|DICT|INTERRES
   138   69  147 1    
   139   70   71 2    
   140   70   72 1    
   141   72   73 1    
   142   72   74 1    
   143   72  148 1    
   144   73  149 1    
   145   73  150 1    
   146   73  151 1    
   147   74   75 am   BACKBONE|DICT|INTERRES
   148   74  152 1    
   149   75   76 2    
   150   75   77 1    
   151   77   78 1    
   152   77   79 1    
   153   77  153 1    
   154   78  154 1    
   155   78  155 1    
   156   78  156 1    
   157   79   80 am   BACKBONE|DICT|INTERRES
   158   79  157 1    
   159   80   81 2    
@<TRIPOS>SUBSTRUCTURE
     1 UNK         1 GROUP             0       ****    0 ROOT    
