@<TRIPOS>MOLECULE
3R207
157   159    1
SMALL
USER_CHARGES


@<TRIPOS>ATOM
      1 CA        -49.8754  -29.6246    9.4657 C.3       0 UNK        -0.1975 
      2 C         -49.2244  -29.8126    8.1047 C.2       0 UNK         0.4852 
      3 O         -48.0642  -30.2188    8.0370 O.2       0 UNK        -0.5216 
      4 N         -49.9528  -29.5155    7.0182 N.am      1 UNK        -0.4461 
      5 CA        -49.4571  -29.6294    5.6375 C.3       1 UNK         0.0864 
      6 C6        -50.6013  -29.8882    4.6196 C.3       14 UNK        -0.0898 
      7 S7        -51.7283  -28.4775    4.3294 S.3       14 UNK        -0.2598 
      8 C8        -53.3230  -29.1218    4.9325 C.3       14 UNK         0.0286 
      9 C9        -53.3424  -29.2324    6.4483 C.ar      14 UNK        -0.0844 
     10 C10       -53.2201  -28.0812    7.2276 C.ar      14 UNK        -0.0881 
     11 C11       -53.1678  -28.1652    8.6209 C.ar      14 UNK        -0.0643 
     12 C12       -53.2925  -29.4138    9.2380 C.ar      14 UNK        -0.0930 
     13 C13       -53.4592  -30.5700    8.4687 C.ar      14 UNK        -0.0827 
     14 C14       -53.4715  -30.4746    7.0737 C.ar      14 UNK        -0.1249 
     15 C15       -53.6163  -31.9277    9.1347 C.3       14 UNK         0.0141 
     16 S16       -55.3594  -32.2623    9.5475 S.3       14 UNK        -0.2313 
     17 C17       -55.4601  -31.7283   11.2902 C.3       14 UNK        -0.0915 
     18 CA        -56.0150  -30.2835   11.4909 C.3       13 UNK         0.0968 
     19 C         -57.5696  -30.1667   11.4377 C.2       13 UNK         0.5732 
     20 N         -58.2398  -30.9754   10.6289 N.am      13 UNK        -0.7310 
     21 O         -58.1755  -29.3133   12.0846 O.2       13 UNK        -0.5035 
     22 N         -55.4221  -29.6499   12.6786 N.am      13 UNK        -0.4233 
     23 C         -55.5726  -30.0503   13.9461 C.2       13 UNK         0.4989 
     24 O         -56.2640  -31.0122   14.2846 O.2       13 UNK        -0.4996 
     25 CA        -54.8007  -29.2799   15.0342 C.3       12 UNK         0.0216 
     26 CB        -53.3444  -29.7730   15.1172 C.3       12 UNK        -0.1964 
     27 N         -54.8574  -27.8111   14.9633 N.am      12 UNK        -0.4276 
     28 C         -54.4197  -26.9837   14.0022 C.2       12 UNK         0.5020 
     29 O         -53.9139  -27.3508   12.9415 O.2       12 UNK        -0.5489 
     30 CA        -54.5437  -25.4886   14.3050 C.3       11 UNK         0.0294 
     31 CB        -55.9996  -25.0673   14.5926 C.3       11 UNK        -0.2019 
     32 N         -53.6582  -25.1776   15.4224 N.am      11 UNK        -0.4493 
     33 C         -53.2273  -23.9645   15.7803 C.2       11 UNK         0.4932 
     34 O         -53.6495  -22.9144   15.2944 O.2       11 UNK        -0.5029 
     35 CA        -52.1148  -23.9047   16.8451 C.3       10 UNK         0.0280 
     36 CB        -52.6844  -24.0611   18.2687 C.3       10 UNK        -0.1976 
     37 N         -50.9942  -24.8249   16.5913 N.am      10 UNK        -0.4242 
     38 C         -50.9758  -26.1671   16.6309 C.2       10 UNK         0.5072 
     39 O         -51.9512  -26.8435   16.9628 O.2       10 UNK        -0.5224 
     40 CA        -49.6902  -26.8971   16.1882 C.3       9 UNK         0.0343 
     41 CB        -50.0068  -27.9670   15.1292 C.3       9 UNK        -0.2003 
     42 N         -48.6644  -26.0044   15.6465 N.am      9 UNK        -0.4272 
     43 C         -47.7653  -25.3286   16.3730 C.2       9 UNK         0.4988 
     44 O         -47.6727  -25.4089   17.5981 O.2       9 UNK        -0.5108 
     45 CA        -46.8353  -24.3723   15.6048 C.3       8 UNK         0.0248 
     46 CB        -45.6133  -25.1289   15.0606 C.3       8 UNK        -0.2001 
     47 N         -47.5070  -23.6622   14.5097 N.am      8 UNK        -0.4140 
     48 C         -48.5431  -22.8243   14.6711 C.2       8 UNK         0.5028 
     49 O         -49.0300  -22.5423   15.7666 O.2       8 UNK        -0.5428 
     50 CA        -49.1760  -22.2368   13.3993 C.3       7 UNK         0.0264 
     51 CB        -48.3089  -21.1059   12.8236 C.3       7 UNK        -0.1988 
     52 N         -49.4247  -23.2495   12.3710 N.am      7 UNK        -0.4454 
     53 C         -50.2644  -24.2869   12.5143 C.2       7 UNK         0.5027 
     54 O         -50.9556  -24.4738   13.5122 O.2       7 UNK        -0.5083 
     55 CA        -50.3213  -25.3120   11.3676 C.3       6 UNK         0.0844 
     56 C56       -51.2590  -24.8058   10.2465 C.3       14 UNK        -0.0967 
     57 S57       -51.4528  -26.0252    8.9138 S.3       14 UNK        -0.2604 
     58 C58       -52.9513  -26.9081    9.4496 C.3       14 UNK         0.0134 
     59 N         -48.9804  -25.6704   10.8917 N.am      6 UNK        -0.4116 
     60 C         -48.0293  -26.2360   11.6504 C.2       5 UNK         0.5034 
     61 O         -48.1933  -26.5766   12.8210 O.2       5 UNK        -0.5045 
     62 CA        -46.6369  -26.3868   11.0224 C.3       5 UNK         0.0224 
     63 CB        -46.5539  -27.6388   10.1347 C.3       5 UNK        -0.1978 
     64 N         -46.2588  -25.1965   10.2590 N.am      5 UNK        -0.4737 
     65 C         -45.9700  -24.0107   10.8142 C.2       4 UNK         0.5027 
     66 O         -45.9476  -23.8119   12.0286 O.2       4 UNK        -0.5211 
     67 CA        -45.6995  -22.8412    9.8532 C.3       4 UNK         0.0297 
     68 CB        -44.2304  -22.8412    9.4031 C.3       4 UNK        -0.1993 
     69 N         -46.5752  -22.8583    8.6788 N.am      4 UNK        -0.4486 
     70 C         -47.9033  -22.6828    8.7242 C.2       3 UNK         0.4961 
     71 O         -48.5294  -22.4478    9.7573 O.2       3 UNK        -0.5105 
     72 CA        -48.6696  -22.8452    7.4000 C.3       3 UNK         0.0299 
     73 CB        -48.6785  -21.5230    6.6168 C.3       3 UNK        -0.1972 
     74 N         -48.1668  -23.9263    6.5420 N.am      3 UNK        -0.4305 
     75 C         -48.0900  -25.2125    6.9084 C.2       2 UNK         0.5006 
     76 O         -48.3391  -25.6201    8.0444 O.2       2 UNK        -0.5106 
     77 CA        -47.6276  -26.2165    5.8521 C.3       2 UNK         0.0296 
     78 CB        -46.1187  -26.4926    5.9941 C.3       2 UNK        -0.2002 
     79 N         -48.3989  -27.4362    6.0618 N.am      2 UNK        -0.4032 
     80 C         -48.5292  -28.4633    5.2135 C.2       1 UNK         0.5000 
     81 O         -47.9540  -28.5188    4.1241 O.2       1 UNK        -0.5238 
     82 H82       -50.5483  -30.4545    9.6810 H         1 UNK         0.0889 
     83 H83       -50.4400  -28.6950    9.5051 H         1 UNK         0.0889 
     84 H84       -49.1210  -29.5859   10.2518 H         1 UNK         0.0889 
     85 H85       -50.9086  -29.1958    7.1181 H         1 UNK         0.3028 
     86 H86       -48.8230  -30.5181    5.6011 H         1 UNK         0.0864 
     87 H87       -51.1798  -30.7569    4.9371 H         1 UNK         0.0720 
     88 H88       -50.1759  -30.1679    3.6542 H         1 UNK         0.0720 
     89 H89       -54.1192  -28.4465    4.6162 H         1 UNK         0.0814 
     90 H90       -53.5313  -30.0836    4.4611 H         1 UNK         0.0814 
     91 H91       -53.1222  -27.1179    6.7451 H         1 UNK         0.1469 
     92 H92       -53.2566  -29.4876   10.3163 H         1 UNK         0.1381 
     93 H93       -53.5824  -31.3690    6.4757 H         1 UNK         0.1206 
     94 H94       -53.2662  -32.7109    8.4606 H         1 UNK         0.0813 
     95 H95       -52.9826  -31.9954   10.0196 H         1 UNK         0.0813 
     96 H96       -54.4625  -31.8128   11.7229 H         1 UNK         0.0638 
     97 H97       -56.0653  -32.4514   11.8397 H         1 UNK         0.0638 
     98 H98       -55.6716  -29.6675   10.6611 H         1 UNK         0.0568 
     99 H99       -59.2429  -30.8991   10.5687 H         1 UNK         0.3450 
    100 H100      -57.7458  -31.6586   10.0738 H         1 UNK         0.3450 
    101 H101      -54.8536  -28.8192   12.5225 H         1 UNK         0.2987 
    102 H102      -55.2787  -29.5385   15.9807 H         1 UNK         0.0766 
    103 H103      -52.8484  -29.3657   15.9978 H         1 UNK         0.0798 
    104 H104      -52.7647  -29.4876   14.2386 H         1 UNK         0.0798 
    105 H105      -53.3008  -30.8601   15.1974 H         1 UNK         0.0798 
    106 H106      -55.2793  -27.3750   15.7717 H         1 UNK         0.3198 
    107 H107      -54.1885  -24.9459   13.4260 H         1 UNK         0.0843 
    108 H108      -56.6686  -25.4110   13.8025 H         1 UNK         0.0831 
    109 H109      -56.0947  -23.9825   14.6409 H         1 UNK         0.0831 
    110 H110      -56.3679  -25.4715   15.5356 H         1 UNK         0.0831 
    111 H111      -53.2087  -25.9721   15.8756 H         1 UNK         0.3133 
    112 H112      -51.6791  -22.9064   16.7809 H         1 UNK         0.0566 
    113 H113      -51.9022  -23.9611   19.0211 H         1 UNK         0.0814 
    114 H114      -53.4307  -23.2921   18.4721 H         1 UNK         0.0814 
    115 H115      -53.1700  -25.0261   18.4154 H         1 UNK         0.0814 
    116 H116      -50.1590  -24.3646   16.2478 H         1 UNK         0.3091 
    117 H117      -49.2879  -27.4033   17.0678 H         1 UNK         0.0702 
    118 H118      -50.6410  -28.7493   15.5434 H         1 UNK         0.0785 
    119 H119      -50.5243  -27.5404   14.2683 H         1 UNK         0.0785 
    120 H120      -49.0996  -28.4517   14.7680 H         1 UNK         0.0785 
    121 H121      -48.6307  -25.9254   14.6336 H         1 UNK         0.2998 
    122 H122      -46.4811  -23.6199   16.3124 H         1 UNK         0.0697 
    123 H123      -45.8996  -25.8776   14.3213 H         1 UNK         0.0825 
    124 H124      -45.0841  -25.6460   15.8621 H         1 UNK         0.0825 
    125 H125      -44.9034  -24.4489   14.5894 H         1 UNK         0.0825 
    126 H126      -47.1336  -23.8082   13.5747 H         1 UNK         0.3029 
    127 H127      -50.1423  -21.8122   13.6806 H         1 UNK         0.0897 
    128 H128      -48.7947  -20.6297   11.9717 H         1 UNK         0.0792 
    129 H129      -47.3362  -21.4693   12.4915 H         1 UNK         0.0792 
    130 H130      -48.1311  -20.3312   13.5707 H         1 UNK         0.0792 
    131 H131      -48.9409  -23.1275   11.4838 H         1 UNK         0.3086 
    132 H132      -50.7606  -26.2235   11.7798 H         1 UNK         0.0583 
    133 H133      -52.2446  -24.5588   10.6470 H         1 UNK         0.1020 
    134 H134      -50.8716  -23.8853    9.8066 H         1 UNK         0.1020 
    135 H135      -52.8544  -27.1594   10.5063 H         1 UNK         0.0694 
    136 H136      -53.8184  -26.2535    9.3553 H         1 UNK         0.0694 
    137 H137      -48.7745  -25.4739    9.9155 H         1 UNK         0.2989 
    138 H138      -45.9198  -26.5055   11.8379 H         1 UNK         0.1055 
    139 H139      -46.7782  -28.5374   10.7107 H         1 UNK         0.0806 
    140 H140      -45.5547  -27.7648    9.7180 H         1 UNK         0.0806 
    141 H141      -47.2593  -27.6043    9.3051 H         1 UNK         0.0806 
    142 H142      -46.3397  -25.2555    9.2538 H         1 UNK         0.3061 
    143 H143      -45.8889  -21.9144   10.3992 H         1 UNK         0.0734 
    144 H144      -44.0033  -21.9708    8.7872 H         1 UNK         0.0832 
    145 H145      -43.5607  -22.8099   10.2639 H         1 UNK         0.0832 
    146 H146      -43.9808  -23.7347    8.8294 H         1 UNK         0.0832 
    147 H147      -46.1469  -23.0483    7.7846 H         1 UNK         0.3156 
    148 H148      -49.7022  -23.0930    7.6544 H         1 UNK         0.0589 
    149 H149      -47.6775  -21.2372    6.2915 H         1 UNK         0.0808 
    150 H150      -49.3139  -21.5886    5.7334 H         1 UNK         0.0808 
    151 H151      -49.0662  -20.7089    7.2312 H         1 UNK         0.0808 
    152 H152      -47.9253  -23.6758    5.5936 H         1 UNK         0.3098 
    153 H153      -47.8452  -25.8244    4.8567 H         1 UNK         0.0720 
    154 H154      -45.8782  -26.9157    6.9704 H         1 UNK         0.0791 
    155 H155      -45.5393  -25.5754    5.8815 H         1 UNK         0.0791 
    156 H156      -45.7669  -27.1899    5.2340 H         1 UNK         0.0791 
    157 H157      -48.9098  -27.4532    6.9360 H         1 UNK         0.3028 
@<TRIPOS>BOND
     1    1    2 1    
     2    1   82 1    
     3    1   83 1    
     4    1   84 1    
     5    2    3 2    
     6    2    4 am   BACKBONE|DICT|INTERRES
     7    4    5 1    
     8    4   85 1    
     9    5    6 1    
    10    5   80 1    
    11    5   86 1    
    12    6    7 1    
    13    6   87 1    
    14    6   88 1    
    15    7    8 1    
    16    8    9 1    
    17    8   89 1    
    18    8   90 1    
    19    9   10 ar   
    20    9   14 ar   
    21   10   11 ar   
    22   10   91 1    
    23   11   12 ar   
    24   11   58 1    
    25   12   13 ar   
    26   12   92 1    
    27   13   14 ar   
    28   13   15 1    
    29   14   93 1    
    30   15   16 1    
    31   15   94 1    
    32   15   95 1    
    33   16   17 1    
    34   17   18 1    
    35   17   96 1    
    36   17   97 1    
    37   18   19 1    
    38   18   22 1    
    39   18   98 1    
    40   19   20 am   BACKBONE|DICT|INTERRES
    41   19   21 2    
    42   20   99 1    
    43   20  100 1    
    44   22   23 am   BACKBONE|DICT|INTERRES
    45   22  101 1    
    46   23   24 2    
    47   23   25 1    
    48   25   26 1    
    49   25   27 1    
    50   25  102 1    
    51   26  103 1    
    52   26  104 1    
    53   26  105 1    
    54   27   28 am   BACKBONE|DICT|INTERRES
    55   27  106 1    
    56   28   29 2    
    57   28   30 1    
    58   30   31 1    
    59   30   32 1    
    60   30  107 1    
    61   31  108 1    
    62   31  109 1    
    63   31  110 1    
    64   32   33 am   BACKBONE|DICT|INTERRES
    65   32  111 1    
    66   33   34 2    
    67   33   35 1    
    68   35   36 1    
    69   35   37 1    
    70   35  112 1    
    71   36  113 1    
    72   36  114 1    
    73   36  115 1    
    74   37   38 am   BACKBONE|DICT|INTERRES
    75   37  116 1    
    76   38   39 2    
    77   38   40 1    
    78   40   41 1    
    79   40   42 1    
    80   40  117 1    
    81   41  118 1    
    82   41  119 1    
    83   41  120 1    
    84   42   43 am   BACKBONE|DICT|INTERRES
    85   42  121 1    
    86   43   44 2    
    87   43   45 1    
    88   45   46 1    
    89   45   47 1    
    90   45  122 1    
    91   46  123 1    
    92   46  124 1    
    93   46  125 1    
    94   47   48 am   BACKBONE|DICT|INTERRES
    95   47  126 1    
    96   48   49 2    
    97   48   50 1    
    98   50   51 1    
    99   50   52 1    
   100   50  127 1    
   101   51  128 1    
   102   51  129 1    
   103   51  130 1    
   104   52   53 am   BACKBONE|DICT|INTERRES
   105   52  131 1    
   106   53   54 2    
   107   53   55 1    
   108   55   56 1    
   109   55   59 1    
   110   55  132 1    
   111   56   57 1    
   112   56  133 1    
   113   56  134 1    
   114   57   58 1    
   115   58  135 1    
   116   58  136 1    
   117   59   60 am   BACKBONE|DICT|INTERRES
   118   59  137 1    
   119   60   61 2    
   120   60   62 1    
   121   62   63 1    
   122   62   64 1    
   123   62  138 1    
   124   63  139 1    
   125   63  140 1    
   126   63  141 1    
   127   64   65 am   BACKBONE|DICT|INTERRES
   128   64  142 1    
   129   65   66 2    
   130   65   67 1    
   131   67   68 1    
   132   67   69 1    
   133   67  143 1    
   134   68  144 1    
   135   68  145 1    
   136   68  146 1    
   137   69   70 am   BACKBONE|DICT|INTERRES
   138   69  147 1    
   139   70   71 2    
   140   70   72 1    
   141   72   73 1    
   142   72   74 1    
   143   72  148 1    
   144   73  149 1    
   145   73  150 1    
   146   73  151 1    
   147   74   75 am   BACKBONE|DICT|INTERRES
   148   74  152 1    
   149   75   76 2    
   150   75   77 1    
   151   77   78 1    
   152   77   79 1    
   153   77  153 1    
   154   78  154 1    
   155   78  155 1    
   156   78  156 1    
   157   79   80 am   BACKBONE|DICT|INTERRES
   158   79  157 1    
   159   80   81 2    
@<TRIPOS>SUBSTRUCTURE
     1 UNK         1 GROUP             0       ****    0 ROOT    
