@<TRIPOS>MOLECULE
3R207
157   159    1
SMALL
USER_CHARGES


@<TRIPOS>ATOM
      1 CA        -46.0626  -23.1196    4.5737 C.3       0 UNK        -0.1975 
      2 C         -47.1518  -23.7827    5.4033 C.2       0 UNK         0.4852 
      3 O         -47.6118  -23.1989    6.3846 O.2       0 UNK        -0.5216 
      4 N         -47.5642  -24.9940    5.0151 N.am      1 UNK        -0.4461 
      5 CA        -48.5363  -25.8234    5.7208 C.3       1 UNK         0.0864 
      6 C6        -49.9787  -25.6026    5.1978 C.3       14 UNK        -0.0898 
      7 S7        -51.2288  -26.0076    6.4575 S.3       14 UNK        -0.2598 
      8 C8        -51.8583  -27.5949    5.8399 C.3       14 UNK         0.0286 
      9 C9        -52.6063  -28.3287    6.9391 C.ar      14 UNK        -0.0844 
     10 C10       -51.8976  -29.1108    7.8523 C.ar      14 UNK        -0.0881 
     11 C11       -52.5637  -29.7867    8.8763 C.ar      14 UNK        -0.0643 
     12 C12       -53.9558  -29.6928    8.9693 C.ar      14 UNK        -0.0930 
     13 C13       -54.6809  -28.9026    8.0673 C.ar      14 UNK        -0.0827 
     14 C14       -53.9955  -28.2248    7.0530 C.ar      14 UNK        -0.1249 
     15 C15       -56.2037  -28.7906    8.1401 C.3       14 UNK         0.0141 
     16 S16       -56.8929  -28.8063    9.8309 S.3       14 UNK        -0.2313 
     17 C17       -56.2424  -27.2392   10.5072 C.3       14 UNK        -0.0915 
     18 CA        -56.4412  -27.1059   12.0412 C.3       13 UNK         0.0968 
     19 C         -57.9173  -26.7982   12.4299 C.2       13 UNK         0.5732 
     20 N         -58.5829  -27.6233   13.2296 N.am      13 UNK        -0.7310 
     21 O         -58.4623  -25.7800   12.0106 O.2       13 UNK        -0.5035 
     22 N         -55.8259  -28.2328   12.7567 N.am      13 UNK        -0.4233 
     23 C         -55.3696  -28.1932   14.0130 C.2       13 UNK         0.4989 
     24 O         -55.4051  -27.1872   14.7227 O.2       13 UNK        -0.4996 
     25 CA        -54.7432  -29.4781   14.5741 C.3       12 UNK         0.0216 
     26 CB        -54.5767  -30.6157   13.5348 C.3       12 UNK        -0.1964 
     27 N         -53.4637  -29.1103   15.1747 N.am      12 UNK        -0.4276 
     28 C         -52.7411  -29.8556   16.0196 C.2       12 UNK         0.5020 
     29 O         -53.0637  -30.9842   16.3926 O.2       12 UNK        -0.5489 
     30 CA        -51.4351  -29.2391   16.5428 C.3       11 UNK         0.0294 
     31 CB        -50.2615  -29.6019   15.6175 C.3       11 UNK        -0.2019 
     32 N         -51.5269  -27.7839   16.6433 N.am      11 UNK        -0.4493 
     33 C         -51.9331  -27.1048   17.7225 C.2       11 UNK         0.4932 
     34 O         -52.2601  -27.6376   18.7843 O.2       11 UNK        -0.5029 
     35 CA        -51.9784  -25.5694   17.5769 C.3       10 UNK         0.0280 
     36 CB        -51.9493  -24.8309   18.9316 C.3       10 UNK        -0.1976 
     37 N         -50.9455  -25.0530   16.6688 N.am      10 UNK        -0.4242 
     38 C         -49.6115  -25.1428   16.8044 C.2       10 UNK         0.5072 
     39 O         -49.0498  -25.6253   17.7885 O.2       10 UNK        -0.5224 
     40 CA        -48.7451  -24.6411   15.6313 C.3       9 UNK         0.0343 
     41 CB        -48.1364  -25.8320   14.8722 C.3       9 UNK        -0.2003 
     42 N         -49.4725  -23.7999   14.6783 N.am      9 UNK        -0.4272 
     43 C         -49.8872  -22.5489   14.9212 C.2       9 UNK         0.4988 
     44 O         -49.6428  -21.9305   15.9573 O.2       9 UNK        -0.5108 
     45 CA        -50.7525  -21.8942   13.8342 C.3       8 UNK         0.0248 
     46 CB        -49.8695  -21.2730   12.7393 C.3       8 UNK        -0.2001 
     47 N         -51.6977  -22.8394   13.2320 N.am      8 UNK        -0.4140 
     48 C         -52.7732  -23.3470   13.8533 C.2       8 UNK         0.5028 
     49 O         -53.0904  -23.0743   15.0104 O.2       8 UNK        -0.5428 
     50 CA        -53.6243  -24.3454   13.0503 C.3       7 UNK         0.0264 
     51 CB        -54.4961  -23.5961   12.0263 C.3       7 UNK        -0.1988 
     52 N         -52.8035  -25.3412   12.3588 N.am      7 UNK        -0.4454 
     53 C         -52.0799  -26.2941   12.9671 C.2       7 UNK         0.5027 
     54 O         -52.1139  -26.5181   14.1774 O.2       7 UNK        -0.5083 
     55 CA        -51.1316  -27.1321   12.0865 C.3       6 UNK         0.0844 
     56 C56       -51.7633  -28.5065   11.7704 C.3       14 UNK        -0.0967 
     57 S57       -50.6212  -29.5985   10.8589 S.3       14 UNK        -0.2604 
     58 C58       -51.7758  -30.6151    9.8815 C.3       14 UNK         0.0134 
     59 N         -50.6791  -26.4159   10.8865 N.am      6 UNK        -0.4116 
     60 C         -49.9223  -25.3105   10.9133 C.2       5 UNK         0.5034 
     61 O         -49.5810  -24.7367   11.9505 O.2       5 UNK        -0.5045 
     62 CA        -49.5132  -24.7124    9.5632 C.3       5 UNK         0.0224 
     63 CB        -50.3299  -23.4494    9.2490 C.3       5 UNK        -0.1978 
     64 N         -48.0881  -24.3862    9.5753 N.am      5 UNK        -0.4737 
     65 C         -47.1289  -25.2994    9.4019 C.2       4 UNK         0.5027 
     66 O         -47.3606  -26.4716    9.0789 O.2       4 UNK        -0.5211 
     67 CA        -45.6784  -24.8377    9.6371 C.3       4 UNK         0.0297 
     68 CB        -45.4383  -24.5417   11.1280 C.3       4 UNK        -0.1993 
     69 N         -44.7837  -25.9150    9.2196 N.am      4 UNK        -0.4486 
     70 C         -44.2991  -26.0503    7.9796 C.2       3 UNK         0.4961 
     71 O         -44.1779  -25.1324    7.1686 O.2       3 UNK        -0.5105 
     72 CA        -44.0784  -27.4971    7.5335 C.3       3 UNK         0.0299 
     73 CB        -43.1061  -28.2768    8.4393 C.3       3 UNK        -0.1972 
     74 N         -45.4084  -28.0968    7.5355 N.am      3 UNK        -0.4305 
     75 C         -45.8339  -29.1278    6.8004 C.2       2 UNK         0.5006 
     76 O         -45.1015  -29.8573    6.1317 O.2       2 UNK        -0.5106 
     77 CA        -47.3610  -29.3286    6.7747 C.3       2 UNK         0.0296 
     78 CB        -47.8313  -30.0893    8.0264 C.3       2 UNK        -0.2002 
     79 N         -48.0572  -28.0378    6.6811 N.am      2 UNK        -0.4032 
     80 C         -48.0582  -27.2766    5.5764 C.2       1 UNK         0.5000 
     81 O         -47.6628  -27.6664    4.4738 O.2       1 UNK        -0.5238 
     82 H82       -45.7943  -23.7154    3.7014 H         1 UNK         0.0889 
     83 H83       -45.1667  -22.9821    5.1791 H         1 UNK         0.0889 
     84 H84       -46.3958  -22.1416    4.2275 H         1 UNK         0.0889 
     85 H85       -47.1332  -25.4540    4.2225 H         1 UNK         0.3028 
     86 H86       -48.4950  -25.5581    6.7773 H         1 UNK         0.0864 
     87 H87       -50.1250  -24.5492    4.9533 H         1 UNK         0.0720 
     88 H88       -50.1663  -26.1478    4.2706 H         1 UNK         0.0720 
     89 H89       -51.0317  -28.2123    5.4848 H         1 UNK         0.0814 
     90 H90       -52.5072  -27.4205    4.9802 H         1 UNK         0.0814 
     91 H91       -50.8224  -29.1805    7.7752 H         1 UNK         0.1469 
     92 H92       -54.4730  -30.2322    9.7501 H         1 UNK         0.1381 
     93 H93       -54.5436  -27.6164    6.3462 H         1 UNK         0.1206 
     94 H94       -56.5421  -27.8801    7.6422 H         1 UNK         0.0813 
     95 H95       -56.6350  -29.6237    7.5837 H         1 UNK         0.0813 
     96 H96       -55.1766  -27.1821   10.2805 H         1 UNK         0.0638 
     97 H97       -56.7025  -26.4039    9.9761 H         1 UNK         0.0638 
     98 H98       -55.8935  -26.2145   12.3451 H         1 UNK         0.0568 
     99 H99       -59.5353  -27.4068   13.4778 H         1 UNK         0.3450 
    100 H100      -58.1481  -28.4613   13.5788 H         1 UNK         0.3450 
    101 H101      -55.7871  -29.1010   12.2439 H         1 UNK         0.2987 
    102 H102      -55.4033  -29.8286   15.3699 H         1 UNK         0.0766 
    103 H103      -54.1182  -31.4990   13.9791 H         1 UNK         0.0798 
    104 H104      -53.9575  -30.3198   12.6887 H         1 UNK         0.0798 
    105 H105      -55.5427  -30.9377   13.1439 H         1 UNK         0.0798 
    106 H106      -53.1593  -28.1604   14.9827 H         1 UNK         0.3198 
    107 H107      -51.2355  -29.6615   17.5303 H         1 UNK         0.0843 
    108 H108      -50.3957  -29.2023   14.6119 H         1 UNK         0.0831 
    109 H109      -50.1568  -30.6840   15.5270 H         1 UNK         0.0831 
    110 H110      -49.3186  -29.2170   16.0066 H         1 UNK         0.0831 
    111 H111      -51.3700  -27.2523   15.7922 H         1 UNK         0.3133 
    112 H112      -52.9329  -25.3422   17.0993 H         1 UNK         0.0566 
    113 H113      -51.9891  -23.7503   18.7940 H         1 UNK         0.0814 
    114 H114      -52.8053  -25.1099   19.5471 H         1 UNK         0.0814 
    115 H115      -51.0500  -25.0646   19.5022 H         1 UNK         0.0814 
    116 H116      -51.2981  -24.6437   15.8138 H         1 UNK         0.3091 
    117 H117      -47.9301  -24.0502   16.0543 H         1 UNK         0.0702 
    118 H118      -47.4993  -25.4987   14.0525 H         1 UNK         0.0785 
    119 H119      -48.9084  -26.4784   14.4551 H         1 UNK         0.0785 
    120 H120      -47.5217  -26.4444   15.5332 H         1 UNK         0.0785 
    121 H121      -49.6498  -24.1981   13.7587 H         1 UNK         0.2998 
    122 H122      -51.3284  -21.0931   14.3027 H         1 UNK         0.0697 
    123 H123      -49.2532  -22.0216   12.2401 H         1 UNK         0.0825 
    124 H124      -49.1939  -20.5284   13.1626 H         1 UNK         0.0825 
    125 H125      -50.4698  -20.7696   11.9813 H         1 UNK         0.0825 
    126 H126      -51.4818  -23.1596   12.3000 H         1 UNK         0.3029 
    127 H127      -54.2787  -24.8688   13.7510 H         1 UNK         0.0897 
    128 H128      -53.8949  -23.0130   11.3274 H         1 UNK         0.0792 
    129 H129      -55.1716  -22.9023   12.5288 H         1 UNK         0.0792 
    130 H130      -55.1123  -24.2753   11.4389 H         1 UNK         0.0792 
    131 H131      -52.7280  -25.2529   11.3564 H         1 UNK         0.3086 
    132 H132      -50.2408  -27.3191   12.6891 H         1 UNK         0.0583 
    133 H133      -52.0287  -29.0213   12.6942 H         1 UNK         0.1020 
    134 H134      -52.6914  -28.3782   11.2113 H         1 UNK         0.1020 
    135 H135      -51.2077  -31.3772    9.3463 H         1 UNK         0.0694 
    136 H136      -52.4430  -31.1481   10.5608 H         1 UNK         0.0694 
    137 H137      -50.9119  -26.8426   10.0012 H         1 UNK         0.2989 
    138 H138      -49.7043  -25.4494    8.7841 H         1 UNK         0.1055 
    139 H139      -51.3976  -23.6706    9.2164 H         1 UNK         0.0806 
    140 H140      -50.0576  -23.0420    8.2746 H         1 UNK         0.0806 
    141 H141      -50.1770  -22.6672    9.9927 H         1 UNK         0.0806 
    142 H142      -47.8365  -23.4506    9.8591 H         1 UNK         0.3061 
    143 H143      -45.4940  -23.9348    9.0504 H         1 UNK         0.0734 
    144 H144      -44.4002  -24.2653   11.3138 H         1 UNK         0.0832 
    145 H145      -46.0579  -23.7126   11.4721 H         1 UNK         0.0832 
    146 H146      -45.6729  -25.4028   11.7555 H         1 UNK         0.0832 
    147 H147      -44.8510  -26.7549    9.7771 H         1 UNK         0.3156 
    148 H148      -43.6884  -27.4856    6.5135 H         1 UNK         0.0589 
    149 H149      -42.1419  -27.7705    8.5010 H         1 UNK         0.0808 
    150 H150      -43.4848  -28.3905    9.4552 H         1 UNK         0.0808 
    151 H151      -42.9210  -29.2759    8.0444 H         1 UNK         0.0808 
    152 H152      -46.1115  -27.5611    8.0399 H         1 UNK         0.3098 
    153 H153      -47.6076  -29.9281    5.8956 H         1 UNK         0.0720 
    154 H154      -48.8801  -30.3721    7.9497 H         1 UNK         0.0791 
    155 H155      -47.7084  -29.4975    8.9347 H         1 UNK         0.0791 
    156 H156      -47.2637  -31.0114    8.1588 H         1 UNK         0.0791 
    157 H157      -48.3360  -27.6150    7.5589 H         1 UNK         0.3028 
@<TRIPOS>BOND
     1    1    2 1    
     2    1   82 1    
     3    1   83 1    
     4    1   84 1    
     5    2    3 2    
     6    2    4 am   BACKBONE|DICT|INTERRES
     7    4    5 1    
     8    4   85 1    
     9    5    6 1    
    10    5   80 1    
    11    5   86 1    
    12    6    7 1    
    13    6   87 1    
    14    6   88 1    
    15    7    8 1    
    16    8    9 1    
    17    8   89 1    
    18    8   90 1    
    19    9   10 ar   
    20    9   14 ar   
    21   10   11 ar   
    22   10   91 1    
    23   11   12 ar   
    24   11   58 1    
    25   12   13 ar   
    26   12   92 1    
    27   13   14 ar   
    28   13   15 1    
    29   14   93 1    
    30   15   16 1    
    31   15   94 1    
    32   15   95 1    
    33   16   17 1    
    34   17   18 1    
    35   17   96 1    
    36   17   97 1    
    37   18   19 1    
    38   18   22 1    
    39   18   98 1    
    40   19   20 am   BACKBONE|DICT|INTERRES
    41   19   21 2    
    42   20   99 1    
    43   20  100 1    
    44   22   23 am   BACKBONE|DICT|INTERRES
    45   22  101 1    
    46   23   24 2    
    47   23   25 1    
    48   25   26 1    
    49   25   27 1    
    50   25  102 1    
    51   26  103 1    
    52   26  104 1    
    53   26  105 1    
    54   27   28 am   BACKBONE|DICT|INTERRES
    55   27  106 1    
    56   28   29 2    
    57   28   30 1    
    58   30   31 1    
    59   30   32 1    
    60   30  107 1    
    61   31  108 1    
    62   31  109 1    
    63   31  110 1    
    64   32   33 am   BACKBONE|DICT|INTERRES
    65   32  111 1    
    66   33   34 2    
    67   33   35 1    
    68   35   36 1    
    69   35   37 1    
    70   35  112 1    
    71   36  113 1    
    72   36  114 1    
    73   36  115 1    
    74   37   38 am   BACKBONE|DICT|INTERRES
    75   37  116 1    
    76   38   39 2    
    77   38   40 1    
    78   40   41 1    
    79   40   42 1    
    80   40  117 1    
    81   41  118 1    
    82   41  119 1    
    83   41  120 1    
    84   42   43 am   BACKBONE|DICT|INTERRES
    85   42  121 1    
    86   43   44 2    
    87   43   45 1    
    88   45   46 1    
    89   45   47 1    
    90   45  122 1    
    91   46  123 1    
    92   46  124 1    
    93   46  125 1    
    94   47   48 am   BACKBONE|DICT|INTERRES
    95   47  126 1    
    96   48   49 2    
    97   48   50 1    
    98   50   51 1    
    99   50   52 1    
   100   50  127 1    
   101   51  128 1    
   102   51  129 1    
   103   51  130 1    
   104   52   53 am   BACKBONE|DICT|INTERRES
   105   52  131 1    
   106   53   54 2    
   107   53   55 1    
   108   55   56 1    
   109   55   59 1    
   110   55  132 1    
   111   56   57 1    
   112   56  133 1    
   113   56  134 1    
   114   57   58 1    
   115   58  135 1    
   116   58  136 1    
   117   59   60 am   BACKBONE|DICT|INTERRES
   118   59  137 1    
   119   60   61 2    
   120   60   62 1    
   121   62   63 1    
   122   62   64 1    
   123   62  138 1    
   124   63  139 1    
   125   63  140 1    
   126   63  141 1    
   127   64   65 am   BACKBONE|DICT|INTERRES
   128   64  142 1    
   129   65   66 2    
   130   65   67 1    
   131   67   68 1    
   132   67   69 1    
   133   67  143 1    
   134   68  144 1    
   135   68  145 1    
   136   68  146 1    
   137   69   70 am   BACKBONE|DICT|INTERRES
   138   69  147 1    
   139   70   71 2    
   140   70   72 1    
   141   72   73 1    
   142   72   74 1    
   143   72  148 1    
   144   73  149 1    
   145   73  150 1    
   146   73  151 1    
   147   74   75 am   BACKBONE|DICT|INTERRES
   148   74  152 1    
   149   75   76 2    
   150   75   77 1    
   151   77   78 1    
   152   77   79 1    
   153   77  153 1    
   154   78  154 1    
   155   78  155 1    
   156   78  156 1    
   157   79   80 am   BACKBONE|DICT|INTERRES
   158   79  157 1    
   159   80   81 2    
@<TRIPOS>SUBSTRUCTURE
     1 UNK         1 GROUP             0       ****    0 ROOT    
