@<TRIPOS>MOLECULE
3R207
157   159    1
SMALL
USER_CHARGES


@<TRIPOS>ATOM
      1 CA        -47.0780  -30.5238    2.0683 C.3       0 UNK        -0.1975 
      2 C         -48.1314  -29.4593    2.3367 C.2       0 UNK         0.4852 
      3 O         -48.2861  -28.5362    1.5363 O.2       0 UNK        -0.5216 
      4 N         -48.8571  -29.5826    3.4561 N.am      1 UNK        -0.4461 
      5 CA        -49.8952  -28.6438    3.9016 C.3       1 UNK         0.0864 
      6 C6        -50.8039  -29.2572    4.9966 C.3       14 UNK        -0.0898 
      7 S7        -49.8932  -30.0095    6.3914 S.3       14 UNK        -0.2598 
      8 C8        -51.2647  -30.7564    7.3268 C.3       14 UNK         0.0286 
      9 C9        -51.5815  -29.9661    8.5873 C.ar      14 UNK        -0.0844 
     10 C10       -52.2253  -28.7271    8.5081 C.ar      14 UNK        -0.0881 
     11 C11       -52.5224  -28.0042    9.6676 C.ar      14 UNK        -0.0643 
     12 C12       -52.1826  -28.5374   10.9137 C.ar      14 UNK        -0.0930 
     13 C13       -51.5460  -29.7779   11.0058 C.ar      14 UNK        -0.0827 
     14 C14       -51.2433  -30.4850    9.8400 C.ar      14 UNK        -0.1249 
     15 C15       -51.1796  -30.3556   12.3628 C.3       14 UNK         0.0141 
     16 S16       -52.4848  -31.4517   13.0089 S.3       14 UNK        -0.2313 
     17 C17       -53.7754  -30.2607   13.5032 C.3       14 UNK        -0.0915 
     18 CA        -54.8695  -30.0680   12.4172 C.3       13 UNK         0.0968 
     19 C         -55.9703  -31.1614   12.4796 C.2       13 UNK         0.5732 
     20 N         -55.7330  -32.3167   11.8743 N.am      13 UNK        -0.7310 
     21 O         -57.0210  -30.9848   13.0947 O.2       13 UNK        -0.5035 
     22 N         -55.4251  -28.7129   12.4950 N.am      13 UNK        -0.4233 
     23 C         -56.0428  -28.0682   11.4988 C.2       13 UNK         0.4989 
     24 O         -56.1939  -28.5441   10.3730 O.2       13 UNK        -0.4996 
     25 CA        -56.5862  -26.6505   11.7879 C.3       12 UNK         0.0216 
     26 CB        -58.0819  -26.5560   11.4369 C.3       12 UNK        -0.1964 
     27 N         -56.3989  -26.1875   13.1694 N.am      12 UNK        -0.4276 
     28 C         -55.2371  -25.8127   13.7197 C.2       12 UNK         0.5020 
     29 O         -54.1579  -25.8184   13.1240 O.2       12 UNK        -0.5489 
     30 CA        -55.2928  -25.4258   15.2018 C.3       11 UNK         0.0294 
     31 CB        -55.5652  -26.6677   16.0771 C.3       11 UNK        -0.2019 
     32 N         -54.0214  -24.8225   15.5871 N.am      11 UNK        -0.4493 
     33 C         -53.7968  -24.1092   16.6977 C.2       11 UNK         0.4932 
     34 O         -54.6821  -23.7801   17.4898 O.2       11 UNK        -0.5029 
     35 CA        -52.3278  -23.7347   16.9765 C.3       10 UNK         0.0280 
     36 CB        -52.0881  -23.1964   18.4029 C.3       10 UNK        -0.1976 
     37 N         -51.4239  -24.8478   16.6671 N.am      10 UNK        -0.4242 
     38 C         -51.4024  -26.0682   17.2251 C.2       10 UNK         0.5072 
     39 O         -52.0717  -26.3979   18.2051 O.2       10 UNK        -0.5224 
     40 CA        -50.5011  -27.1187   16.5538 C.3       9 UNK         0.0343 
     41 CB        -51.3080  -27.9393   15.5368 C.3       9 UNK        -0.2003 
     42 N         -49.3286  -26.5419   15.8907 N.am      9 UNK        -0.4272 
     43 C         -48.2699  -26.0464   16.5479 C.2       9 UNK         0.4988 
     44 O         -48.1437  -26.0825   17.7727 O.2       9 UNK        -0.5108 
     45 CA        -47.1700  -25.3874   15.7007 C.3       8 UNK         0.0248 
     46 CB        -46.2576  -26.4538   15.0735 C.3       8 UNK        -0.2001 
     47 N         -47.7030  -24.5048   14.6588 N.am      8 UNK        -0.4140 
     48 C         -48.3866  -23.3746   14.8975 C.2       8 UNK         0.5028 
     49 O         -48.6055  -22.9298   16.0244 O.2       8 UNK        -0.5428 
     50 CA        -48.9419  -22.6168   13.6800 C.3       7 UNK         0.0264 
     51 CB        -47.8526  -21.7422   13.0398 C.3       7 UNK        -0.1988 
     52 N         -49.5212  -23.4997   12.6666 N.am      7 UNK        -0.4454 
     53 C         -50.5942  -24.2832   12.8511 C.2       7 UNK         0.5027 
     54 O         -51.2393  -24.3264   13.8978 O.2       7 UNK        -0.5083 
     55 CA        -50.9816  -25.2062   11.6821 C.3       6 UNK         0.0844 
     56 C56       -51.8046  -24.4365   10.6174 C.3       14 UNK        -0.0967 
     57 S57       -52.0832  -25.3430    9.0555 S.3       14 UNK        -0.2604 
     58 C58       -53.2288  -26.6605    9.5656 C.3       14 UNK         0.0134 
     59 N         -49.8062  -25.8810   11.1320 N.am      6 UNK        -0.4116 
     60 C         -49.0420  -26.7611   11.7925 C.2       5 UNK         0.5034 
     61 O         -49.2507  -27.1324   12.9487 O.2       5 UNK        -0.5045 
     62 CA        -47.7974  -27.2633   11.0458 C.3       5 UNK         0.0224 
     63 CB        -48.1648  -28.3940   10.0714 C.3       5 UNK        -0.1978 
     64 N         -47.1250  -26.1785   10.3230 N.am      5 UNK        -0.4737 
     65 C         -46.4870  -25.1648   10.9301 C.2       4 UNK         0.5027 
     66 O         -46.3612  -25.0751   12.1498 O.2       4 UNK        -0.5211 
     67 CA        -45.9362  -24.0346   10.0429 C.3       4 UNK         0.0297 
     68 CB        -44.5130  -24.3692    9.5703 C.3       4 UNK        -0.1993 
     69 N         -46.7800  -23.7468    8.8830 N.am      4 UNK        -0.4486 
     70 C         -48.0647  -23.3668    8.9345 C.2       3 UNK         0.4961 
     71 O         -48.6616  -23.1200    9.9817 O.2       3 UNK        -0.5105 
     72 CA        -48.8269  -23.2883    7.5994 C.3       3 UNK         0.0299 
     73 CB        -48.9562  -21.8267    7.1434 C.3       3 UNK        -0.1972 
     74 N         -48.2357  -24.0866    6.5171 N.am      3 UNK        -0.4305 
     75 C         -48.0806  -25.4184    6.5335 C.2       2 UNK         0.5006 
     76 O         -48.3743  -26.1362    7.4919 O.2       2 UNK        -0.5106 
     77 CA        -47.4079  -26.0393    5.2996 C.3       2 UNK         0.0296 
     78 CB        -45.9414  -26.3850    5.6076 C.3       2 UNK        -0.2002 
     79 N         -48.1022  -27.2453    4.8510 N.am      2 UNK        -0.4032 
     80 C         -49.3360  -27.2684    4.3259 C.2       1 UNK         0.5000 
     81 O         -50.0192  -26.2588    4.1397 O.2       1 UNK        -0.5238 
     82 H82       -47.2828  -31.0238    1.1221 H         1 UNK         0.0889 
     83 H83       -47.0530  -31.2800    2.8527 H         1 UNK         0.0889 
     84 H84       -46.0907  -30.0669    2.0061 H         1 UNK         0.0889 
     85 H85       -48.6925  -30.3629    4.0776 H         1 UNK         0.3028 
     86 H86       -50.5325  -28.4475    3.0362 H         1 UNK         0.0864 
     87 H87       -51.4193  -30.0359    4.5432 H         1 UNK         0.0720 
     88 H88       -51.5052  -28.5147    5.3815 H         1 UNK         0.0720 
     89 H89       -50.9894  -31.7813    7.5803 H         1 UNK         0.0814 
     90 H90       -52.1597  -30.8324    6.7080 H         1 UNK         0.0814 
     91 H91       -52.4904  -28.3188    7.5433 H         1 UNK         0.1469 
     92 H92       -52.4302  -27.9976   11.8161 H         1 UNK         0.1381 
     93 H93       -50.7492  -31.4444    9.9110 H         1 UNK         0.1206 
     94 H94       -50.2529  -30.9253   12.2800 H         1 UNK         0.0813 
     95 H95       -50.9734  -29.5526   13.0688 H         1 UNK         0.0813 
     96 H96       -53.2822  -29.3128   13.7225 H         1 UNK         0.0638 
     97 H97       -54.2106  -30.5837   14.4508 H         1 UNK         0.0638 
     98 H98       -54.3990  -30.1504   11.4358 H         1 UNK         0.0568 
     99 H99       -54.8588  -32.4789   11.3989 H         1 UNK         0.3450 
    100 H100      -56.4286  -33.0448   11.9125 H         1 UNK         0.3450 
    101 H101      -55.3722  -28.2602   13.3931 H         1 UNK         0.2987 
    102 H102      -56.0439  -25.9672   11.1312 H         1 UNK         0.0766 
    103 H103      -58.2596  -26.8229   10.3940 H         1 UNK         0.0798 
    104 H104      -58.4601  -25.5428   11.5746 H         1 UNK         0.0798 
    105 H105      -58.6833  -27.2275   12.0510 H         1 UNK         0.0798 
    106 H106      -57.2298  -26.1658   13.7443 H         1 UNK         0.3198 
    107 H107      -56.0900  -24.6915   15.3360 H         1 UNK         0.0843 
    108 H108      -55.6282  -26.4057   17.1334 H         1 UNK         0.0831 
    109 H109      -54.7768  -27.4141   15.9701 H         1 UNK         0.0831 
    110 H110      -56.5092  -27.1464   15.8149 H         1 UNK         0.0831 
    111 H111      -53.2645  -24.9847   14.9284 H         1 UNK         0.3133 
    112 H112      -52.0759  -22.9369   16.2765 H         1 UNK         0.0566 
    113 H113      -51.0388  -22.9449   18.5580 H         1 UNK         0.0814 
    114 H114      -52.3770  -23.9200   19.1656 H         1 UNK         0.0814 
    115 H115      -52.6687  -22.2903   18.5795 H         1 UNK         0.0814 
    116 H116      -50.8910  -24.7207   15.8125 H         1 UNK         0.3091 
    117 H117      -50.1543  -27.7983   17.3352 H         1 UNK         0.0702 
    118 H118      -50.7193  -28.7798   15.1726 H         1 UNK         0.0785 
    119 H119      -51.6135  -27.3381   14.6786 H         1 UNK         0.0785 
    120 H120      -52.2115  -28.3507   15.9892 H         1 UNK         0.0785 
    121 H121      -49.3307  -26.5313   14.8745 H         1 UNK         0.2998 
    122 H122      -46.5612  -24.7757   16.3698 H         1 UNK         0.0697 
    123 H123      -46.7920  -27.0672   14.3474 H         1 UNK         0.0825 
    124 H124      -45.8560  -27.1232   15.8354 H         1 UNK         0.0825 
    125 H125      -45.4083  -25.9977   14.5646 H         1 UNK         0.0825 
    126 H126      -47.4959  -24.7617   13.6970 H         1 UNK         0.3029 
    127 H127      -49.7393  -21.9611   14.0364 H         1 UNK         0.0897 
    128 H128      -47.0241  -22.3422   12.6631 H         1 UNK         0.0792 
    129 H129      -47.4423  -21.0376   13.7645 H         1 UNK         0.0792 
    130 H130      -48.2488  -21.1595   12.2078 H         1 UNK         0.0792 
    131 H131      -49.0866  -23.4861   11.7451 H         1 UNK         0.3086 
    132 H132      -51.6250  -25.9779   12.1020 H         1 UNK         0.0583 
    133 H133      -52.7732  -24.1504   11.0328 H         1 UNK         0.1020 
    134 H134      -51.3092  -23.5008   10.3512 H         1 UNK         0.1020 
    135 H135      -53.6980  -26.3990   10.5138 H         1 UNK         0.0694 
    136 H136      -54.0365  -26.7314    8.8357 H         1 UNK         0.0694 
    137 H137      -49.5570  -25.6382   10.1840 H         1 UNK         0.2989 
    138 H138      -47.1014  -27.6616   11.7875 H         1 UNK         0.1055 
    139 H139      -48.9058  -28.0764    9.3358 H         1 UNK         0.0806 
    140 H140      -47.2907  -28.7564    9.5306 H         1 UNK         0.0806 
    141 H141      -48.5889  -29.2433   10.6080 H         1 UNK         0.0806 
    142 H142      -47.2492  -26.1553    9.3164 H         1 UNK         0.3061 
    143 H143      -45.8916  -23.1286   10.6501 H         1 UNK         0.0734 
    144 H144      -44.4952  -25.2534    8.9316 H         1 UNK         0.0832 
    145 H145      -44.0733  -23.5416    9.0134 H         1 UNK         0.0832 
    146 H146      -43.8584  -24.5686   10.4201 H         1 UNK         0.0832 
    147 H147      -46.3761  -23.9141    7.9738 H         1 UNK         0.3156 
    148 H148      -49.8302  -23.6782    7.7805 H         1 UNK         0.0589 
    149 H149      -49.5799  -21.7412    6.2534 H         1 UNK         0.0808 
    150 H150      -49.4198  -21.2160    7.9198 H         1 UNK         0.0808 
    151 H151      -47.9844  -21.3851    6.9190 H         1 UNK         0.0808 
    152 H152      -47.9522  -23.5787    5.6910 H         1 UNK         0.3098 
    153 H153      -47.4285  -25.3185    4.4795 H         1 UNK         0.0720 
    154 H154      -45.3846  -25.4978    5.9121 H         1 UNK         0.0791 
    155 H155      -45.4380  -26.7959    4.7322 H         1 UNK         0.0791 
    156 H156      -45.8596  -27.1142    6.4152 H         1 UNK         0.0791 
    157 H157      -47.6353  -28.1265    5.0038 H         1 UNK         0.3028 
@<TRIPOS>BOND
     1    1    2 1    
     2    1   82 1    
     3    1   83 1    
     4    1   84 1    
     5    2    3 2    
     6    2    4 am   BACKBONE|DICT|INTERRES
     7    4    5 1    
     8    4   85 1    
     9    5    6 1    
    10    5   80 1    
    11    5   86 1    
    12    6    7 1    
    13    6   87 1    
    14    6   88 1    
    15    7    8 1    
    16    8    9 1    
    17    8   89 1    
    18    8   90 1    
    19    9   10 ar   
    20    9   14 ar   
    21   10   11 ar   
    22   10   91 1    
    23   11   12 ar   
    24   11   58 1    
    25   12   13 ar   
    26   12   92 1    
    27   13   14 ar   
    28   13   15 1    
    29   14   93 1    
    30   15   16 1    
    31   15   94 1    
    32   15   95 1    
    33   16   17 1    
    34   17   18 1    
    35   17   96 1    
    36   17   97 1    
    37   18   19 1    
    38   18   22 1    
    39   18   98 1    
    40   19   20 am   BACKBONE|DICT|INTERRES
    41   19   21 2    
    42   20   99 1    
    43   20  100 1    
    44   22   23 am   BACKBONE|DICT|INTERRES
    45   22  101 1    
    46   23   24 2    
    47   23   25 1    
    48   25   26 1    
    49   25   27 1    
    50   25  102 1    
    51   26  103 1    
    52   26  104 1    
    53   26  105 1    
    54   27   28 am   BACKBONE|DICT|INTERRES
    55   27  106 1    
    56   28   29 2    
    57   28   30 1    
    58   30   31 1    
    59   30   32 1    
    60   30  107 1    
    61   31  108 1    
    62   31  109 1    
    63   31  110 1    
    64   32   33 am   BACKBONE|DICT|INTERRES
    65   32  111 1    
    66   33   34 2    
    67   33   35 1    
    68   35   36 1    
    69   35   37 1    
    70   35  112 1    
    71   36  113 1    
    72   36  114 1    
    73   36  115 1    
    74   37   38 am   BACKBONE|DICT|INTERRES
    75   37  116 1    
    76   38   39 2    
    77   38   40 1    
    78   40   41 1    
    79   40   42 1    
    80   40  117 1    
    81   41  118 1    
    82   41  119 1    
    83   41  120 1    
    84   42   43 am   BACKBONE|DICT|INTERRES
    85   42  121 1    
    86   43   44 2    
    87   43   45 1    
    88   45   46 1    
    89   45   47 1    
    90   45  122 1    
    91   46  123 1    
    92   46  124 1    
    93   46  125 1    
    94   47   48 am   BACKBONE|DICT|INTERRES
    95   47  126 1    
    96   48   49 2    
    97   48   50 1    
    98   50   51 1    
    99   50   52 1    
   100   50  127 1    
   101   51  128 1    
   102   51  129 1    
   103   51  130 1    
   104   52   53 am   BACKBONE|DICT|INTERRES
   105   52  131 1    
   106   53   54 2    
   107   53   55 1    
   108   55   56 1    
   109   55   59 1    
   110   55  132 1    
   111   56   57 1    
   112   56  133 1    
   113   56  134 1    
   114   57   58 1    
   115   58  135 1    
   116   58  136 1    
   117   59   60 am   BACKBONE|DICT|INTERRES
   118   59  137 1    
   119   60   61 2    
   120   60   62 1    
   121   62   63 1    
   122   62   64 1    
   123   62  138 1    
   124   63  139 1    
   125   63  140 1    
   126   63  141 1    
   127   64   65 am   BACKBONE|DICT|INTERRES
   128   64  142 1    
   129   65   66 2    
   130   65   67 1    
   131   67   68 1    
   132   67   69 1    
   133   67  143 1    
   134   68  144 1    
   135   68  145 1    
   136   68  146 1    
   137   69   70 am   BACKBONE|DICT|INTERRES
   138   69  147 1    
   139   70   71 2    
   140   70   72 1    
   141   72   73 1    
   142   72   74 1    
   143   72  148 1    
   144   73  149 1    
   145   73  150 1    
   146   73  151 1    
   147   74   75 am   BACKBONE|DICT|INTERRES
   148   74  152 1    
   149   75   76 2    
   150   75   77 1    
   151   77   78 1    
   152   77   79 1    
   153   77  153 1    
   154   78  154 1    
   155   78  155 1    
   156   78  156 1    
   157   79   80 am   BACKBONE|DICT|INTERRES
   158   79  157 1    
   159   80   81 2    
@<TRIPOS>SUBSTRUCTURE
     1 UNK         1 GROUP             0       ****    0 ROOT    
