@<TRIPOS>MOLECULE
3R207
157   159    1
SMALL
USER_CHARGES


@<TRIPOS>ATOM
      1 CA        -47.3510  -30.9298    7.4236 C.3       0 UNK        -0.1975 
      2 C         -46.9962  -30.0206    6.2564 C.2       0 UNK         0.4852 
      3 O         -45.8141  -29.7741    6.0129 O.2       0 UNK        -0.5216 
      4 N         -48.0175  -29.5346    5.5382 N.am      1 UNK        -0.4461 
      5 CA        -47.9766  -28.6301    4.3813 C.3       1 UNK         0.0864 
      6 C6        -49.4023  -28.3433    3.8099 C.3       14 UNK        -0.0898 
      7 S7        -50.8318  -28.4847    4.9534 S.3       14 UNK        -0.2598 
      8 C8        -50.4385  -27.3132    6.2952 C.3       14 UNK         0.0286 
      9 C9        -51.6131  -27.1167    7.2471 C.ar      14 UNK        -0.0844 
     10 C10       -52.1312  -25.8355    7.4629 C.ar      14 UNK        -0.0881 
     11 C11       -53.2412  -25.6462    8.2911 C.ar      14 UNK        -0.0643 
     12 C12       -53.8390  -26.7517    8.9021 C.ar      14 UNK        -0.0930 
     13 C13       -53.3218  -28.0358    8.7108 C.ar      14 UNK        -0.0827 
     14 C14       -52.1969  -28.2095    7.8982 C.ar      14 UNK        -0.1249 
     15 C15       -54.0290  -29.2394    9.3167 C.3       14 UNK         0.0141 
     16 S16       -54.0266  -29.2129   11.1359 S.3       14 UNK        -0.2313 
     17 C17       -55.1036  -30.6466   11.4705 C.3       14 UNK        -0.0915 
     18 CA        -56.5478  -30.2241   11.8497 C.3       13 UNK         0.0968 
     19 C         -57.5134  -31.4455   11.8189 C.2       13 UNK         0.5732 
     20 N         -58.1011  -31.8643   12.9338 N.am      13 UNK        -0.7310 
     21 O         -57.7404  -32.0196   10.7565 O.2       13 UNK        -0.5035 
     22 N         -56.5650  -29.4640   13.1093 N.am      13 UNK        -0.4233 
     23 C         -57.5430  -28.6388   13.5057 C.2       13 UNK         0.4989 
     24 O         -58.5412  -28.3869   12.8299 O.2       13 UNK        -0.4996 
     25 CA        -57.4016  -27.9970   14.9004 C.3       12 UNK         0.0216 
     26 CB        -58.3905  -28.6381   15.8890 C.3       12 UNK        -0.1964 
     27 N         -56.0441  -28.1005   15.4483 N.am      12 UNK        -0.4276 
     28 C         -55.0277  -27.3024   15.0989 C.2       12 UNK         0.5020 
     29 O         -55.1375  -26.3514   14.3227 O.2       12 UNK        -0.5489 
     30 CA        -53.6513  -27.6799   15.6683 C.3       11 UNK         0.0294 
     31 CB        -52.9266  -28.6448   14.7162 C.3       11 UNK        -0.2019 
     32 N         -52.8015  -26.5112   15.8871 N.am      11 UNK        -0.4493 
     33 C         -52.9463  -25.6392   16.8946 C.2       11 UNK         0.4932 
     34 O         -53.8543  -25.7030   17.7259 O.2       11 UNK        -0.5029 
     35 CA        -51.8693  -24.5383   17.0093 C.3       10 UNK         0.0280 
     36 CB        -51.8328  -23.8667   18.3986 C.3       10 UNK        -0.1976 
     37 N         -50.5359  -25.0146   16.6181 N.am      10 UNK        -0.4242 
     38 C         -49.8354  -26.0205   17.1686 C.2       10 UNK         0.5072 
     39 O         -50.1708  -26.6110   18.1963 O.2       10 UNK        -0.5224 
     40 CA        -48.5578  -26.4749   16.4412 C.3       9 UNK         0.0343 
     41 CB        -48.7196  -27.9125   15.9139 C.3       9 UNK        -0.2003 
     42 N         -48.2135  -25.6011   15.3149 N.am      9 UNK        -0.4272 
     43 C         -47.1125  -24.8405   15.2516 C.2       9 UNK         0.4988 
     44 O         -46.2574  -24.7890   16.1365 O.2       9 UNK        -0.5108 
     45 CA        -46.9214  -23.9936   13.9835 C.3       8 UNK         0.0248 
     46 CB        -46.2515  -24.8235   12.8746 C.3       8 UNK        -0.2001 
     47 N         -48.1607  -23.4052   13.4709 N.am      8 UNK        -0.4140 
     48 C         -48.8588  -22.4327   14.0753 C.2       8 UNK         0.5028 
     49 O         -48.5838  -21.9806   15.1867 O.2       8 UNK        -0.5428 
     50 CA        -50.0646  -21.8651   13.3141 C.3       7 UNK         0.0264 
     51 CB        -49.5997  -20.8957   12.2144 C.3       7 UNK        -0.1988 
     52 N         -50.8525  -22.9363   12.7066 N.am      7 UNK        -0.4454 
     53 C         -52.0849  -23.2966   13.0891 C.2       7 UNK         0.5027 
     54 O         -52.7194  -22.7206   13.9736 O.2       7 UNK        -0.5083 
     55 CA        -52.7304  -24.5090   12.3786 C.3       6 UNK         0.0844 
     56 C56       -53.7519  -24.0533   11.3088 C.3       14 UNK        -0.0967 
     57 S57       -52.9831  -23.3370    9.8093 S.3       14 UNK        -0.2604 
     58 C58       -53.8212  -24.2526    8.4795 C.3       14 UNK         0.0134 
     59 N         -51.7649  -25.4736   11.8436 N.am      6 UNK        -0.4116 
     60 C         -50.8640  -26.1473   12.5690 C.2       5 UNK         0.5034 
     61 O         -50.7823  -26.0799   13.7961 O.2       5 UNK        -0.5045 
     62 CA        -49.8282  -26.9855   11.8027 C.3       5 UNK         0.0224 
     63 CB        -50.3092  -28.4353   11.6523 C.3       5 UNK        -0.1978 
     64 N         -49.4487  -26.4687   10.4823 N.am      5 UNK        -0.4737 
     65 C         -49.0377  -25.2284   10.1908 C.2       4 UNK         0.5027 
     66 O         -49.0124  -24.3041   11.0039 O.2       4 UNK        -0.5211 
     67 CA        -48.5282  -25.0002    8.7606 C.3       4 UNK         0.0297 
     68 CB        -48.6399  -23.5252    8.3371 C.3       4 UNK        -0.1993 
     69 N         -47.1392  -25.4402    8.6234 N.am      4 UNK        -0.4486 
     70 C         -46.7270  -26.7141    8.6306 C.2       3 UNK         0.4961 
     71 O         -47.4849  -27.6825    8.7133 O.2       3 UNK        -0.5105 
     72 CA        -45.2191  -26.9396    8.4477 C.3       3 UNK         0.0299 
     73 CB        -44.7231  -28.2013    9.1754 C.3       3 UNK        -0.1972 
     74 N         -44.9616  -27.0710    7.0180 N.am      3 UNK        -0.4305 
     75 C         -44.7793  -26.0351    6.1868 C.2       2 UNK         0.5006 
     76 O         -44.5814  -24.8792    6.5642 O.2       2 UNK        -0.5106 
     77 CA        -44.8887  -26.3274    4.6790 C.3       2 UNK         0.0296 
     78 CB        -43.5148  -26.6947    4.0961 C.3       2 UNK        -0.2002 
     79 N         -45.8513  -27.3918    4.3751 N.am      2 UNK        -0.4032 
     80 C         -47.1663  -27.3374    4.6389 C.2       1 UNK         0.5000 
     81 O         -47.7266  -26.3318    5.0769 O.2       1 UNK        -0.5238 
     82 H82       -48.3943  -31.2429    7.3915 H         1 UNK         0.0889 
     83 H83       -47.1824  -30.4132    8.3677 H         1 UNK         0.0889 
     84 H84       -46.7293  -31.8244    7.4070 H         1 UNK         0.0889 
     85 H85       -48.9574  -29.7766    5.8195 H         1 UNK         0.3028 
     86 H86       -47.4350  -29.1705    3.6019 H         1 UNK         0.0864 
     87 H87       -49.4548  -27.3726    3.3124 H         1 UNK         0.0720 
     88 H88       -49.5969  -29.0639    3.0140 H         1 UNK         0.0720 
     89 H89       -50.1571  -26.3592    5.8486 H         1 UNK         0.0814 
     90 H90       -49.5755  -27.6670    6.8594 H         1 UNK         0.0814 
     91 H91       -51.6846  -24.9819    6.9709 H         1 UNK         0.1469 
     92 H92       -54.7200  -26.6215    9.5151 H         1 UNK         0.1381 
     93 H93       -51.8011  -29.2020    7.7314 H         1 UNK         0.1206 
     94 H94       -55.0597  -29.2565    8.9592 H         1 UNK         0.0813 
     95 H95       -53.5682  -30.1681    8.9764 H         1 UNK         0.0813 
     96 H96       -54.6551  -31.2328   12.2745 H         1 UNK         0.0638 
     97 H97       -55.1026  -31.2962   10.5930 H         1 UNK         0.0638 
     98 H98       -56.9079  -29.5561   11.0648 H         1 UNK         0.0568 
     99 H99       -58.7267  -32.6534   12.8934 H         1 UNK         0.3450 
    100 H100      -57.9262  -31.4032   13.8111 H         1 UNK         0.3450 
    101 H101      -55.7785  -29.6086   13.7216 H         1 UNK         0.2987 
    102 H102      -57.6604  -26.9406   14.7989 H         1 UNK         0.0766 
    103 H103      -58.3533  -28.1466   16.8614 H         1 UNK         0.0798 
    104 H104      -58.1853  -29.6986   16.0403 H         1 UNK         0.0798 
    105 H105      -59.4161  -28.5536   15.5264 H         1 UNK         0.0798 
    106 H106      -55.8747  -28.8517   16.1028 H         1 UNK         0.3198 
    107 H107      -53.7905  -28.1799   16.6295 H         1 UNK         0.0843 
    108 H108      -53.4916  -29.5674   14.5802 H         1 UNK         0.0831 
    109 H109      -51.9448  -28.9219   15.1003 H         1 UNK         0.0831 
    110 H110      -52.7880  -28.2008   13.7301 H         1 UNK         0.0831 
    111 H111      -52.0530  -26.3610   15.2165 H         1 UNK         0.3133 
    112 H112      -52.1422  -23.7706   16.2866 H         1 UNK         0.0566 
    113 H113      -51.0683  -23.0912   18.4439 H         1 UNK         0.0814 
    114 H114      -52.7879  -23.3924   18.6276 H         1 UNK         0.0814 
    115 H115      -51.6299  -24.5858   19.1926 H         1 UNK         0.0814 
    116 H116      -50.1661  -24.6097   15.7712 H         1 UNK         0.3091 
    117 H117      -47.7593  -26.4775   17.1858 H         1 UNK         0.0702 
    118 H118      -47.8063  -28.2621   15.4325 H         1 UNK         0.0785 
    119 H119      -49.5308  -27.9915   15.1898 H         1 UNK         0.0785 
    120 H120      -48.9414  -28.6055   16.7265 H         1 UNK         0.0785 
    121 H121      -48.8696  -25.5921   14.5435 H         1 UNK         0.2998 
    122 H122      -46.2498  -23.1710   14.2385 H         1 UNK         0.0697 
    123 H123      -45.3002  -25.2343   13.2153 H         1 UNK         0.0825 
    124 H124      -46.0442  -24.2149   11.9941 H         1 UNK         0.0825 
    125 H125      -46.8740  -25.6613   12.5606 H         1 UNK         0.0825 
    126 H126      -48.4521  -23.7080   12.5416 H         1 UNK         0.3029 
    127 H127      -50.6683  -21.3005   14.0282 H         1 UNK         0.0897 
    128 H128      -50.4502  -20.4374   11.7094 H         1 UNK         0.0792 
    129 H129      -48.9973  -20.0885   12.6333 H         1 UNK         0.0792 
    130 H130      -48.9952  -21.3982   11.4577 H         1 UNK         0.0792 
    131 H131      -50.3945  -23.4691   11.9711 H         1 UNK         0.3086 
    132 H132      -53.2867  -25.0381   13.1523 H         1 UNK         0.0583 
    133 H133      -54.4455  -23.3208   11.7269 H         1 UNK         0.1020 
    134 H134      -54.3761  -24.9032   11.0351 H         1 UNK         0.1020 
    135 H135      -54.8922  -24.3027    8.6827 H         1 UNK         0.0694 
    136 H136      -53.7188  -23.6878    7.5517 H         1 UNK         0.0694 
    137 H137      -51.7454  -25.5723   10.8385 H         1 UNK         0.2989 
    138 H138      -48.9226  -26.9959   12.4113 H         1 UNK         0.1055 
    139 H139      -50.6099  -28.8556   12.6130 H         1 UNK         0.0806 
    140 H140      -49.5208  -29.0745   11.2543 H         1 UNK         0.0806 
    141 H141      -51.1641  -28.5041   10.9795 H         1 UNK         0.0806 
    142 H142      -49.3283  -27.1635    9.7542 H         1 UNK         0.3061 
    143 H143      -49.1469  -25.5869    8.0823 H         1 UNK         0.0734 
    144 H144      -49.6661  -23.1690    8.4398 H         1 UNK         0.0832 
    145 H145      -48.0085  -22.8773    8.9465 H         1 UNK         0.0832 
    146 H146      -48.3532  -23.3908    7.2938 H         1 UNK         0.0832 
    147 H147      -46.4449  -24.7142    8.5127 H         1 UNK         0.3156 
    148 H148      -44.6782  -26.0828    8.8553 H         1 UNK         0.0589 
    149 H149      -45.1817  -29.1082    8.7817 H         1 UNK         0.0808 
    150 H150      -43.6425  -28.3098    9.0825 H         1 UNK         0.0808 
    151 H151      -44.9554  -28.1530   10.2400 H         1 UNK         0.0808 
    152 H152      -45.1606  -27.9820    6.6133 H         1 UNK         0.3098 
    153 H153      -45.2373  -25.4148    4.1910 H         1 UNK         0.0720 
    154 H154      -43.5643  -26.8269    3.0151 H         1 UNK         0.0791 
    155 H155      -43.1244  -27.6160    4.5307 H         1 UNK         0.0791 
    156 H156      -42.7856  -25.9072    4.2918 H         1 UNK         0.0791 
    157 H157      -45.4641  -28.2747    4.0710 H         1 UNK         0.3028 
@<TRIPOS>BOND
     1    1    2 1    
     2    1   82 1    
     3    1   83 1    
     4    1   84 1    
     5    2    3 2    
     6    2    4 am   BACKBONE|DICT|INTERRES
     7    4    5 1    
     8    4   85 1    
     9    5    6 1    
    10    5   80 1    
    11    5   86 1    
    12    6    7 1    
    13    6   87 1    
    14    6   88 1    
    15    7    8 1    
    16    8    9 1    
    17    8   89 1    
    18    8   90 1    
    19    9   10 ar   
    20    9   14 ar   
    21   10   11 ar   
    22   10   91 1    
    23   11   12 ar   
    24   11   58 1    
    25   12   13 ar   
    26   12   92 1    
    27   13   14 ar   
    28   13   15 1    
    29   14   93 1    
    30   15   16 1    
    31   15   94 1    
    32   15   95 1    
    33   16   17 1    
    34   17   18 1    
    35   17   96 1    
    36   17   97 1    
    37   18   19 1    
    38   18   22 1    
    39   18   98 1    
    40   19   20 am   BACKBONE|DICT|INTERRES
    41   19   21 2    
    42   20   99 1    
    43   20  100 1    
    44   22   23 am   BACKBONE|DICT|INTERRES
    45   22  101 1    
    46   23   24 2    
    47   23   25 1    
    48   25   26 1    
    49   25   27 1    
    50   25  102 1    
    51   26  103 1    
    52   26  104 1    
    53   26  105 1    
    54   27   28 am   BACKBONE|DICT|INTERRES
    55   27  106 1    
    56   28   29 2    
    57   28   30 1    
    58   30   31 1    
    59   30   32 1    
    60   30  107 1    
    61   31  108 1    
    62   31  109 1    
    63   31  110 1    
    64   32   33 am   BACKBONE|DICT|INTERRES
    65   32  111 1    
    66   33   34 2    
    67   33   35 1    
    68   35   36 1    
    69   35   37 1    
    70   35  112 1    
    71   36  113 1    
    72   36  114 1    
    73   36  115 1    
    74   37   38 am   BACKBONE|DICT|INTERRES
    75   37  116 1    
    76   38   39 2    
    77   38   40 1    
    78   40   41 1    
    79   40   42 1    
    80   40  117 1    
    81   41  118 1    
    82   41  119 1    
    83   41  120 1    
    84   42   43 am   BACKBONE|DICT|INTERRES
    85   42  121 1    
    86   43   44 2    
    87   43   45 1    
    88   45   46 1    
    89   45   47 1    
    90   45  122 1    
    91   46  123 1    
    92   46  124 1    
    93   46  125 1    
    94   47   48 am   BACKBONE|DICT|INTERRES
    95   47  126 1    
    96   48   49 2    
    97   48   50 1    
    98   50   51 1    
    99   50   52 1    
   100   50  127 1    
   101   51  128 1    
   102   51  129 1    
   103   51  130 1    
   104   52   53 am   BACKBONE|DICT|INTERRES
   105   52  131 1    
   106   53   54 2    
   107   53   55 1    
   108   55   56 1    
   109   55   59 1    
   110   55  132 1    
   111   56   57 1    
   112   56  133 1    
   113   56  134 1    
   114   57   58 1    
   115   58  135 1    
   116   58  136 1    
   117   59   60 am   BACKBONE|DICT|INTERRES
   118   59  137 1    
   119   60   61 2    
   120   60   62 1    
   121   62   63 1    
   122   62   64 1    
   123   62  138 1    
   124   63  139 1    
   125   63  140 1    
   126   63  141 1    
   127   64   65 am   BACKBONE|DICT|INTERRES
   128   64  142 1    
   129   65   66 2    
   130   65   67 1    
   131   67   68 1    
   132   67   69 1    
   133   67  143 1    
   134   68  144 1    
   135   68  145 1    
   136   68  146 1    
   137   69   70 am   BACKBONE|DICT|INTERRES
   138   69  147 1    
   139   70   71 2    
   140   70   72 1    
   141   72   73 1    
   142   72   74 1    
   143   72  148 1    
   144   73  149 1    
   145   73  150 1    
   146   73  151 1    
   147   74   75 am   BACKBONE|DICT|INTERRES
   148   74  152 1    
   149   75   76 2    
   150   75   77 1    
   151   77   78 1    
   152   77   79 1    
   153   77  153 1    
   154   78  154 1    
   155   78  155 1    
   156   78  156 1    
   157   79   80 am   BACKBONE|DICT|INTERRES
   158   79  157 1    
   159   80   81 2    
@<TRIPOS>SUBSTRUCTURE
     1 UNK         1 GROUP             0       ****    0 ROOT    
