@<TRIPOS>MOLECULE
3R207
157   159    1
SMALL
USER_CHARGES


@<TRIPOS>ATOM
      1 CA        -48.1666  -25.6249    2.6184 C.3       0 UNK        -0.1975 
      2 C         -49.3928  -25.8785    3.4827 C.2       0 UNK         0.4852 
      3 O         -50.1780  -24.9582    3.7141 O.2       0 UNK        -0.5216 
      4 N         -49.5658  -27.1193    3.9581 N.am      1 UNK        -0.4461 
      5 CA        -50.6300  -27.5178    4.8835 C.3       1 UNK         0.0864 
      6 C6        -50.7473  -29.0590    4.9684 C.3       14 UNK        -0.0898 
      7 S7        -52.3564  -29.6031    5.6307 S.3       14 UNK        -0.2598 
      8 C8        -51.9108  -31.1950    6.3941 C.3       14 UNK         0.0286 
      9 C9        -51.5614  -31.0498    7.8692 C.ar      14 UNK        -0.0844 
     10 C10       -50.2367  -30.8565    8.2769 C.ar      14 UNK        -0.0881 
     11 C11       -49.9174  -30.7670    9.6370 C.ar      14 UNK        -0.0643 
     12 C12       -50.9343  -30.8828   10.5897 C.ar      14 UNK        -0.0930 
     13 C13       -52.2590  -31.0876   10.1954 C.ar      14 UNK        -0.0827 
     14 C14       -52.5680  -31.1586    8.8342 C.ar      14 UNK        -0.1249 
     15 C15       -53.3435  -31.2851   11.2434 C.3       14 UNK         0.0141 
     16 S16       -53.8861  -29.7091   11.9676 S.3       14 UNK        -0.2313 
     17 C17       -55.1320  -30.3107   13.1597 C.3       14 UNK        -0.0915 
     18 CA        -56.5932  -30.0880   12.6662 C.3       13 UNK         0.0968 
     19 C         -57.6502  -30.8310   13.5414 C.2       13 UNK         0.5732 
     20 N         -58.8629  -30.3124   13.6953 N.am      13 UNK        -0.7310 
     21 O         -57.3865  -31.9140   14.0593 O.2       13 UNK        -0.5035 
     22 N         -56.8940  -28.6683   12.4002 N.am      13 UNK        -0.4233 
     23 C         -56.9192  -27.6888   13.3124 C.2       13 UNK         0.4989 
     24 O         -56.7450  -27.8549   14.5216 O.2       13 UNK        -0.4996 
     25 CA        -57.1553  -26.2687   12.7805 C.3       12 UNK         0.0216 
     26 CB        -58.2860  -25.5587   13.5446 C.3       12 UNK        -0.1964 
     27 N         -55.9196  -25.5088   12.9309 N.am      12 UNK        -0.4276 
     28 C         -54.8614  -25.5951   12.1183 C.2       12 UNK         0.5020 
     29 O         -54.8780  -26.1965   11.0447 O.2       12 UNK        -0.5489 
     30 CA        -53.5651  -24.9058   12.5799 C.3       11 UNK         0.0294 
     31 CB        -53.6360  -23.3815   12.3502 C.3       11 UNK        -0.2019 
     32 N         -53.1713  -25.2402   13.9594 N.am      11 UNK        -0.4493 
     33 C         -53.7769  -24.9044   15.1080 C.2       11 UNK         0.4932 
     34 O         -54.7938  -24.2098   15.1549 O.2       11 UNK        -0.5029 
     35 CA        -53.1973  -25.4179   16.4413 C.3       10 UNK         0.0280 
     36 CB        -54.1333  -26.4722   17.0674 C.3       10 UNK        -0.1976 
     37 N         -51.8072  -25.8954   16.4165 N.am      10 UNK        -0.4242 
     38 C         -51.2913  -26.9801   15.8238 C.2       10 UNK         0.5072 
     39 O         -51.9433  -27.7356   15.1032 O.2       10 UNK        -0.5224 
     40 CA        -49.7927  -27.2531   16.0819 C.3       9 UNK         0.0343 
     41 CB        -49.3002  -28.5344   15.3839 C.3       9 UNK        -0.2003 
     42 N         -48.9423  -26.1328   15.6700 N.am      9 UNK        -0.4272 
     43 C         -48.8118  -24.9657   16.3171 C.2       9 UNK         0.4988 
     44 O         -49.3441  -24.7262   17.4021 O.2       9 UNK        -0.5108 
     45 CA        -48.0152  -23.8581   15.6047 C.3       8 UNK         0.0248 
     46 CB        -46.5047  -24.0314   15.8276 C.3       8 UNK        -0.2001 
     47 N         -48.3077  -23.8001   14.1694 N.am      8 UNK        -0.4140 
     48 C         -49.5141  -23.5182   13.6525 C.2       8 UNK         0.5028 
     49 O         -50.4835  -23.1666   14.3242 O.2       8 UNK        -0.5428 
     50 CA        -49.6744  -23.6869   12.1343 C.3       7 UNK         0.0264 
     51 CB        -49.2333  -22.4143   11.3954 C.3       7 UNK        -0.1988 
     52 N         -48.9438  -24.8568   11.6382 N.am      7 UNK        -0.4454 
     53 C         -49.3464  -26.1237   11.8320 C.2       7 UNK         0.5027 
     54 O         -50.4208  -26.4197   12.3512 O.2       7 UNK        -0.5083 
     55 CA        -48.3870  -27.2529   11.4022 C.3       6 UNK         0.0844 
     56 C56       -48.7458  -27.7615    9.9895 C.3       14 UNK        -0.0967 
     57 S57       -47.6670  -29.1088    9.3977 S.3       14 UNK        -0.2604 
     58 C58       -48.4735  -30.5872   10.0924 C.3       14 UNK         0.0134 
     59 N         -46.9862  -26.8422   11.5170 N.am      6 UNK        -0.4116 
     60 C         -46.3391  -26.7152   12.6828 C.2       5 UNK         0.5034 
     61 O         -46.8542  -26.9479   13.7754 O.2       5 UNK        -0.5045 
     62 CA        -44.8913  -26.1972   12.6332 C.3       5 UNK         0.0224 
     63 CB        -43.9072  -27.3701   12.5023 C.3       5 UNK        -0.1978 
     64 N         -44.6466  -25.2320   11.5570 N.am      5 UNK        -0.4737 
     65 C         -45.2770  -24.0575   11.4216 C.2       4 UNK         0.5027 
     66 O         -46.1330  -23.6568   12.2114 O.2       4 UNK        -0.5211 
     67 CA        -44.9383  -23.2025   10.1830 C.3       4 UNK         0.0297 
     68 CB        -43.7496  -23.7394    9.3528 C.3       4 UNK        -0.1993 
     69 N         -46.1052  -22.9974    9.3131 N.am      4 UNK        -0.4486 
     70 C         -46.8926  -23.9470    8.7880 C.2       3 UNK         0.4961 
     71 O         -46.7573  -25.1543    9.0034 O.2       3 UNK        -0.5105 
     72 CA        -48.0112  -23.4653    7.8554 C.3       3 UNK         0.0299 
     73 CB        -47.4890  -23.3168    6.4168 C.3       3 UNK        -0.1972 
     74 N         -49.0845  -24.4528    7.8656 N.am      3 UNK        -0.4305 
     75 C         -50.3891  -24.2169    8.0266 C.2       2 UNK         0.5006 
     76 O         -50.8753  -23.0884    8.1163 O.2       2 UNK        -0.5106 
     77 CA        -51.3012  -25.4606    8.0886 C.3       2 UNK         0.0296 
     78 CB        -52.7326  -25.1182    8.5382 C.3       2 UNK        -0.2002 
     79 N         -51.3638  -26.1740    6.8099 N.am      2 UNK        -0.4032 
     80 C         -50.3712  -26.8925    6.2673 C.2       1 UNK         0.5000 
     81 O         -49.2750  -27.0662    6.8043 O.2       1 UNK        -0.5238 
     82 H82       -47.5378  -24.8620    3.0766 H         1 UNK         0.0889 
     83 H83       -48.4686  -25.2716    1.6328 H         1 UNK         0.0889 
     84 H84       -47.5665  -26.5252    2.4870 H         1 UNK         0.0889 
     85 H85       -48.8713  -27.8255    3.7608 H         1 UNK         0.3028 
     86 H86       -51.5670  -27.1228    4.4838 H         1 UNK         0.0864 
     87 H87       -50.6566  -29.4951    3.9721 H         1 UNK         0.0720 
     88 H88       -49.9305  -29.4828    5.5558 H         1 UNK         0.0720 
     89 H89       -51.0872  -31.6580    5.8481 H         1 UNK         0.0814 
     90 H90       -52.7559  -31.8768    6.2865 H         1 UNK         0.0814 
     91 H91       -49.4493  -30.7813    7.5397 H         1 UNK         0.1469 
     92 H92       -50.6966  -30.8296   11.6436 H         1 UNK         0.1381 
     93 H93       -53.5914  -31.3211    8.5242 H         1 UNK         0.1206 
     94 H94       -52.9671  -31.9360   12.0342 H         1 UNK         0.0813 
     95 H95       -54.2048  -31.7952   10.8090 H         1 UNK         0.0813 
     96 H96       -54.9646  -29.8054   14.1119 H         1 UNK         0.0638 
     97 H97       -54.9442  -31.3682   13.3520 H         1 UNK         0.0638 
     98 H98       -56.6735  -30.5787   11.6958 H         1 UNK         0.0568 
     99 H99       -59.5429  -30.8057   14.2519 H         1 UNK         0.3450 
    100 H100      -59.1012  -29.4322   13.2682 H         1 UNK         0.3450 
    101 H101      -57.0293  -28.4290   11.4287 H         1 UNK         0.2987 
    102 H102      -57.4293  -26.3108   11.7240 H         1 UNK         0.0766 
    103 H103      -58.4646  -24.5595   13.1469 H         1 UNK         0.0798 
    104 H104      -58.0590  -25.4589   14.6071 H         1 UNK         0.0798 
    105 H105      -59.2212  -26.1136   13.4609 H         1 UNK         0.0798 
    106 H106      -55.7801  -25.0182   13.8117 H         1 UNK         0.3198 
    107 H107      -52.7661  -25.2960   11.9490 H         1 UNK         0.0843 
    108 H108      -52.7340  -22.8793   12.6972 H         1 UNK         0.0831 
    109 H109      -54.4825  -22.9277   12.8660 H         1 UNK         0.0831 
    110 H110      -53.7493  -23.1548   11.2896 H         1 UNK         0.0831 
    111 H111      -52.3937  -25.8880   14.0299 H         1 UNK         0.3133 
    112 H112      -53.1864  -24.5560   17.1101 H         1 UNK         0.0566 
    113 H113      -53.7725  -26.7980   18.0428 H         1 UNK         0.0814 
    114 H114      -55.1358  -26.0671   17.2120 H         1 UNK         0.0814 
    115 H115      -54.2352  -27.3535   16.4327 H         1 UNK         0.0814 
    116 H116      -51.1457  -25.3203   16.9322 H         1 UNK         0.3091 
    117 H117      -49.6737  -27.3974   17.1577 H         1 UNK         0.0702 
    118 H118      -48.2498  -28.7283   15.6018 H         1 UNK         0.0785 
    119 H119      -49.4112  -28.4678   14.3014 H         1 UNK         0.0785 
    120 H120      -49.8673  -29.4046   15.7170 H         1 UNK         0.0785 
    121 H121      -48.4188  -26.2651   14.8106 H         1 UNK         0.2998 
    122 H122      -48.3142  -22.9017   16.0387 H         1 UNK         0.0697 
    123 H123      -45.9362  -23.2443   15.3316 H         1 UNK         0.0825 
    124 H124      -46.2627  -23.9869   16.8903 H         1 UNK         0.0825 
    125 H125      -46.1457  -24.9900   15.4546 H         1 UNK         0.0825 
    126 H126      -47.5394  -23.9848   13.5303 H         1 UNK         0.3029 
    127 H127      -50.7344  -23.8390   11.9271 H         1 UNK         0.0897 
    128 H128      -49.4424  -22.4829   10.3305 H         1 UNK         0.0792 
    129 H129      -49.7754  -21.5444   11.7688 H         1 UNK         0.0792 
    130 H130      -48.1706  -22.2096   11.5203 H         1 UNK         0.0792 
    131 H131      -48.0243  -24.6929   11.2499 H         1 UNK         0.3086 
    132 H132      -48.5455  -28.0840   12.0921 H         1 UNK         0.0583 
    133 H133      -49.7877  -28.0837    9.9447 H         1 UNK         0.1020 
    134 H134      -48.6542  -26.9469    9.2740 H         1 UNK         0.1020 
    135 H135      -47.9014  -31.4675    9.7968 H         1 UNK         0.0694 
    136 H136      -48.4119  -30.5348   11.1806 H         1 UNK         0.0694 
    137 H137      -46.5196  -26.5868   10.6543 H         1 UNK         0.2989 
    138 H138      -44.6957  -25.6899   13.5801 H         1 UNK         0.1055 
    139 H139      -44.0530  -28.0925   13.3069 H         1 UNK         0.0806 
    140 H140      -42.8730  -27.0301   12.5593 H         1 UNK         0.0806 
    141 H141      -44.0357  -27.9030   11.5592 H         1 UNK         0.0806 
    142 H142      -43.9753  -25.4964   10.8503 H         1 UNK         0.3061 
    143 H143      -44.6575  -22.2200   10.5656 H         1 UNK         0.0734 
    144 H144      -43.9627  -24.7111    8.9052 H         1 UNK         0.0832 
    145 H145      -43.5036  -23.0553    8.5405 H         1 UNK         0.0832 
    146 H146      -42.8506  -23.8387    9.9629 H         1 UNK         0.0832 
    147 H147      -46.3185  -22.0325    9.1000 H         1 UNK         0.3156 
    148 H148      -48.3752  -22.4989    8.2089 H         1 UNK         0.0589 
    149 H149      -48.2799  -22.9886    5.7417 H         1 UNK         0.0808 
    150 H150      -46.6875  -22.5790    6.3621 H         1 UNK         0.0808 
    151 H151      -47.0948  -24.2589    6.0328 H         1 UNK         0.0808 
    152 H152      -48.7829  -25.4185    7.7561 H         1 UNK         0.3098 
    153 H153      -50.8828  -26.1343    8.8373 H         1 UNK         0.0720 
    154 H154      -52.7249  -24.6002    9.4976 H         1 UNK         0.0791 
    155 H155      -53.3345  -26.0184    8.6661 H         1 UNK         0.0791 
    156 H156      -53.2408  -24.4712    7.8222 H         1 UNK         0.0791 
    157 H157      -52.2178  -26.0626    6.2827 H         1 UNK         0.3028 
@<TRIPOS>BOND
     1    1    2 1    
     2    1   82 1    
     3    1   83 1    
     4    1   84 1    
     5    2    3 2    
     6    2    4 am   BACKBONE|DICT|INTERRES
     7    4    5 1    
     8    4   85 1    
     9    5    6 1    
    10    5   80 1    
    11    5   86 1    
    12    6    7 1    
    13    6   87 1    
    14    6   88 1    
    15    7    8 1    
    16    8    9 1    
    17    8   89 1    
    18    8   90 1    
    19    9   10 ar   
    20    9   14 ar   
    21   10   11 ar   
    22   10   91 1    
    23   11   12 ar   
    24   11   58 1    
    25   12   13 ar   
    26   12   92 1    
    27   13   14 ar   
    28   13   15 1    
    29   14   93 1    
    30   15   16 1    
    31   15   94 1    
    32   15   95 1    
    33   16   17 1    
    34   17   18 1    
    35   17   96 1    
    36   17   97 1    
    37   18   19 1    
    38   18   22 1    
    39   18   98 1    
    40   19   20 am   BACKBONE|DICT|INTERRES
    41   19   21 2    
    42   20   99 1    
    43   20  100 1    
    44   22   23 am   BACKBONE|DICT|INTERRES
    45   22  101 1    
    46   23   24 2    
    47   23   25 1    
    48   25   26 1    
    49   25   27 1    
    50   25  102 1    
    51   26  103 1    
    52   26  104 1    
    53   26  105 1    
    54   27   28 am   BACKBONE|DICT|INTERRES
    55   27  106 1    
    56   28   29 2    
    57   28   30 1    
    58   30   31 1    
    59   30   32 1    
    60   30  107 1    
    61   31  108 1    
    62   31  109 1    
    63   31  110 1    
    64   32   33 am   BACKBONE|DICT|INTERRES
    65   32  111 1    
    66   33   34 2    
    67   33   35 1    
    68   35   36 1    
    69   35   37 1    
    70   35  112 1    
    71   36  113 1    
    72   36  114 1    
    73   36  115 1    
    74   37   38 am   BACKBONE|DICT|INTERRES
    75   37  116 1    
    76   38   39 2    
    77   38   40 1    
    78   40   41 1    
    79   40   42 1    
    80   40  117 1    
    81   41  118 1    
    82   41  119 1    
    83   41  120 1    
    84   42   43 am   BACKBONE|DICT|INTERRES
    85   42  121 1    
    86   43   44 2    
    87   43   45 1    
    88   45   46 1    
    89   45   47 1    
    90   45  122 1    
    91   46  123 1    
    92   46  124 1    
    93   46  125 1    
    94   47   48 am   BACKBONE|DICT|INTERRES
    95   47  126 1    
    96   48   49 2    
    97   48   50 1    
    98   50   51 1    
    99   50   52 1    
   100   50  127 1    
   101   51  128 1    
   102   51  129 1    
   103   51  130 1    
   104   52   53 am   BACKBONE|DICT|INTERRES
   105   52  131 1    
   106   53   54 2    
   107   53   55 1    
   108   55   56 1    
   109   55   59 1    
   110   55  132 1    
   111   56   57 1    
   112   56  133 1    
   113   56  134 1    
   114   57   58 1    
   115   58  135 1    
   116   58  136 1    
   117   59   60 am   BACKBONE|DICT|INTERRES
   118   59  137 1    
   119   60   61 2    
   120   60   62 1    
   121   62   63 1    
   122   62   64 1    
   123   62  138 1    
   124   63  139 1    
   125   63  140 1    
   126   63  141 1    
   127   64   65 am   BACKBONE|DICT|INTERRES
   128   64  142 1    
   129   65   66 2    
   130   65   67 1    
   131   67   68 1    
   132   67   69 1    
   133   67  143 1    
   134   68  144 1    
   135   68  145 1    
   136   68  146 1    
   137   69   70 am   BACKBONE|DICT|INTERRES
   138   69  147 1    
   139   70   71 2    
   140   70   72 1    
   141   72   73 1    
   142   72   74 1    
   143   72  148 1    
   144   73  149 1    
   145   73  150 1    
   146   73  151 1    
   147   74   75 am   BACKBONE|DICT|INTERRES
   148   74  152 1    
   149   75   76 2    
   150   75   77 1    
   151   77   78 1    
   152   77   79 1    
   153   77  153 1    
   154   78  154 1    
   155   78  155 1    
   156   78  156 1    
   157   79   80 am   BACKBONE|DICT|INTERRES
   158   79  157 1    
   159   80   81 2    
@<TRIPOS>SUBSTRUCTURE
     1 UNK         1 GROUP             0       ****    0 ROOT    
