@<TRIPOS>MOLECULE
3R207
157   159    1
SMALL
USER_CHARGES


@<TRIPOS>ATOM
      1 CA        -45.5865  -31.8855    4.6607 C.3       0 UNK        -0.1975 
      2 C         -46.5957  -30.8035    4.3054 C.2       0 UNK         0.4852 
      3 O         -47.0657  -30.7551    3.1674 O.2       0 UNK        -0.5216 
      4 N         -46.9387  -29.9432    5.2723 N.am      1 UNK        -0.4461 
      5 CA        -47.8546  -28.8095    5.1016 C.3       1 UNK         0.0864 
      6 C6        -48.3372  -28.2408    6.4620 C.3       14 UNK        -0.0898 
      7 S7        -49.1042  -29.5113    7.5254 S.3       14 UNK        -0.2598 
      8 C8        -50.8346  -29.4714    6.9626 C.3       14 UNK         0.0286 
      9 C9        -51.7308  -28.7139    7.9311 C.ar      14 UNK        -0.0844 
     10 C10       -51.8715  -27.3267    7.8347 C.ar      14 UNK        -0.0881 
     11 C11       -52.7256  -26.6381    8.7026 C.ar      14 UNK        -0.0643 
     12 C12       -53.4493  -27.3464    9.6664 C.ar      14 UNK        -0.0930 
     13 C13       -53.3159  -28.7338    9.7719 C.ar      14 UNK        -0.0827 
     14 C14       -52.4499  -29.4101    8.9071 C.ar      14 UNK        -0.1249 
     15 C15       -54.1267  -29.5085   10.7989 C.3       14 UNK         0.0141 
     16 S16       -53.5445  -29.1853   12.4896 S.3       14 UNK        -0.2313 
     17 C17       -54.2676  -30.6091   13.3741 C.3       14 UNK        -0.0915 
     18 CA        -55.7535  -30.4185   13.7779 C.3       13 UNK         0.0968 
     19 C         -56.2835  -31.6884   14.5067 C.2       13 UNK         0.5732 
     20 N         -56.5985  -31.6353   15.7956 N.am      13 UNK        -0.7310 
     21 O         -56.4138  -32.7410   13.8864 O.2       13 UNK        -0.5035 
     22 N         -55.9738  -29.1504   14.4916 N.am      13 UNK        -0.4233 
     23 C         -57.1711  -28.5856   14.6992 C.2       13 UNK         0.4989 
     24 O         -58.2394  -29.0780   14.3348 O.2       13 UNK        -0.4996 
     25 CA        -57.1783  -27.2320   15.4238 C.3       12 UNK         0.0216 
     26 CB        -57.2439  -27.4317   16.9468 C.3       12 UNK        -0.1964 
     27 N         -56.0041  -26.4260   15.0843 N.am      12 UNK        -0.4276 
     28 C         -55.8893  -25.6879   13.9696 C.2       12 UNK         0.5020 
     29 O         -56.7806  -25.6056   13.1226 O.2       12 UNK        -0.5489 
     30 CA        -54.5651  -24.9263   13.7384 C.3       11 UNK         0.0294 
     31 CB        -54.7814  -23.5472   13.0813 C.3       11 UNK        -0.2019 
     32 N         -53.7154  -24.8102   14.9291 N.am      11 UNK        -0.4493 
     33 C         -54.0002  -24.2130   16.0964 C.2       11 UNK         0.4932 
     34 O         -55.0131  -23.5394   16.2888 O.2       11 UNK        -0.5029 
     35 CA        -53.0064  -24.4438   17.2577 C.3       10 UNK         0.0280 
     36 CB        -53.7046  -24.3905   18.6327 C.3       10 UNK        -0.1976 
     37 N         -52.2086  -25.6771   17.1544 N.am      10 UNK        -0.4242 
     38 C         -52.6575  -26.9362   17.0015 C.2       10 UNK         0.5072 
     39 O         -53.8493  -27.2221   16.8685 O.2       10 UNK        -0.5224 
     40 CA        -51.6008  -28.0544   16.9487 C.3       9 UNK         0.0343 
     41 CB        -52.0684  -29.2708   16.1329 C.3       9 UNK        -0.2003 
     42 N         -50.3514  -27.5517   16.3798 N.am      9 UNK        -0.4272 
     43 C         -49.1423  -27.6596   16.9464 C.2       9 UNK         0.4988 
     44 O         -48.9184  -28.3035   17.9721 O.2       9 UNK        -0.5108 
     45 CA        -47.9829  -26.8944   16.2774 C.3       8 UNK         0.0248 
     46 CB        -47.1514  -27.8442   15.4010 C.3       8 UNK        -0.2001 
     47 N         -48.4138  -25.7399   15.4781 N.am      8 UNK        -0.4140 
     48 C         -49.0743  -24.6768   15.9664 C.2       8 UNK         0.5028 
     49 O         -49.3611  -24.5428   17.1565 O.2       8 UNK        -0.5428 
     50 CA        -49.5663  -23.6102   14.9725 C.3       7 UNK         0.0264 
     51 CB        -48.5968  -22.4184   14.9449 C.3       7 UNK        -0.1988 
     52 N         -49.7723  -24.0890   13.6044 N.am      7 UNK        -0.4454 
     53 C         -50.5754  -25.0939   13.2207 C.2       7 UNK         0.5027 
     54 O         -51.2386  -25.7816   14.0003 O.2       7 UNK        -0.5083 
     55 CA        -50.6085  -25.3834   11.7052 C.3       6 UNK         0.0844 
     56 C56       -51.6083  -24.4079   11.0170 C.3       14 UNK        -0.0967 
     57 S57       -51.4178  -24.2538    9.2030 S.3       14 UNK        -0.2604 
     58 C58       -52.8810  -25.1317    8.5774 C.3       14 UNK         0.0134 
     59 N         -49.2835  -25.3318   11.0767 N.am      6 UNK        -0.4116 
     60 C         -48.1159  -25.8436   11.4939 C.2       5 UNK         0.5034 
     61 O         -47.9593  -26.4453   12.5563 O.2       5 UNK        -0.5045 
     62 CA        -46.9046  -25.6282   10.5678 C.3       5 UNK         0.0224 
     63 CB        -46.5109  -26.9516    9.8936 C.3       5 UNK        -0.1978 
     64 N         -47.1420  -24.6164    9.5310 N.am      5 UNK        -0.4737 
     65 C         -47.2275  -23.2962    9.7354 C.2       4 UNK         0.5027 
     66 O         -47.0542  -22.7743   10.8376 O.2       4 UNK        -0.5211 
     67 CA        -47.5929  -22.4298    8.5100 C.3       4 UNK         0.0297 
     68 CB        -47.5742  -20.9228    8.8271 C.3       4 UNK        -0.1993 
     69 N         -46.7374  -22.6812    7.3442 N.am      4 UNK        -0.4486 
     70 C         -46.7935  -23.7575    6.5502 C.2       3 UNK         0.4961 
     71 O         -47.5643  -24.7040    6.7361 O.2       3 UNK        -0.5105 
     72 CA        -45.7816  -23.8014    5.3930 C.3       3 UNK         0.0299 
     73 CB        -44.3997  -24.2371    5.9076 C.3       3 UNK        -0.1972 
     74 N         -46.2137  -24.7438    4.3641 N.am      3 UNK        -0.4305 
     75 C         -47.2065  -24.5439    3.4911 C.2       2 UNK         0.5006 
     76 O         -47.7637  -23.4581    3.3235 O.2       2 UNK        -0.5106 
     77 CA        -47.6810  -25.7691    2.6861 C.3       2 UNK         0.0296 
     78 CB        -46.6893  -26.1242    1.5598 C.3       2 UNK        -0.2002 
     79 N         -48.0120  -26.9399    3.5176 N.am      2 UNK        -0.4032 
     80 C         -47.1918  -27.6968    4.2640 C.2       1 UNK         0.5000 
     81 O         -45.9721  -27.5175    4.3462 O.2       1 UNK        -0.5238 
     82 H82       -45.2685  -31.8204    5.7012 H         1 UNK         0.0889 
     83 H83       -44.7027  -31.7952    4.0297 H         1 UNK         0.0889 
     84 H84       -46.0213  -32.8717    4.5003 H         1 UNK         0.0889 
     85 H85       -46.5154  -30.0234    6.1854 H         1 UNK         0.3028 
     86 H86       -48.7266  -29.1712    4.5523 H         1 UNK         0.0864 
     87 H87       -47.4955  -27.8111    7.0078 H         1 UNK         0.0720 
     88 H88       -49.0449  -27.4224    6.3172 H         1 UNK         0.0720 
     89 H89       -51.1865  -30.4991    6.8601 H         1 UNK         0.0814 
     90 H90       -50.9039  -29.0352    5.9652 H         1 UNK         0.0814 
     91 H91       -51.3187  -26.7791    7.0839 H         1 UNK         0.1469 
     92 H92       -54.1194  -26.8222   10.3341 H         1 UNK         0.1381 
     93 H93       -52.3456  -30.4841    8.9827 H         1 UNK         0.1206 
     94 H94       -55.1790  -29.2314   10.7219 H         1 UNK         0.0813 
     95 H95       -54.0734  -30.5779   10.5899 H         1 UNK         0.0813 
     96 H96       -53.6607  -30.7895   14.2620 H         1 UNK         0.0638 
     97 H97       -54.1494  -31.4998   12.7542 H         1 UNK         0.0638 
     98 H98       -56.3294  -30.3534   12.8529 H         1 UNK         0.0568 
     99 H99       -56.9437  -32.4640   16.2533 H         1 UNK         0.3450 
    100 H100      -56.4962  -30.7774   16.3123 H         1 UNK         0.3450 
    101 H101      -55.1475  -28.6779   14.8266 H         1 UNK         0.2987 
    102 H102      -58.0767  -26.6921   15.1165 H         1 UNK         0.0766 
    103 H103      -57.2730  -26.4757   17.4700 H         1 UNK         0.0798 
    104 H104      -56.3863  -27.9912   17.3223 H         1 UNK         0.0798 
    105 H105      -58.1417  -27.9834   17.2287 H         1 UNK         0.0798 
    106 H106      -55.2156  -26.4791   15.7256 H         1 UNK         0.3198 
    107 H107      -54.0010  -25.5430   13.0377 H         1 UNK         0.0843 
    108 H108      -55.2627  -23.6480   12.1078 H         1 UNK         0.0831 
    109 H109      -53.8363  -23.0286   12.9223 H         1 UNK         0.0831 
    110 H110      -55.4172  -22.9054   13.6916 H         1 UNK         0.0831 
    111 H111      -52.8315  -25.3103   14.8597 H         1 UNK         0.3133 
    112 H112      -52.2948  -23.6184   17.2143 H         1 UNK         0.0566 
    113 H113      -52.9915  -24.5279   19.4455 H         1 UNK         0.0814 
    114 H114      -54.1907  -23.4273   18.7926 H         1 UNK         0.0814 
    115 H115      -54.4705  -25.1617   18.7242 H         1 UNK         0.0814 
    116 H116      -51.2065  -25.5419   17.2443 H         1 UNK         0.3091 
    117 H117      -51.4491  -28.3730   17.9818 H         1 UNK         0.0702 
    118 H118      -51.3239  -30.0667   16.1475 H         1 UNK         0.0785 
    119 H119      -52.2439  -28.9967   15.0936 H         1 UNK         0.0785 
    120 H120      -52.9948  -29.6870   16.5309 H         1 UNK         0.0785 
    121 H121      -50.4451  -27.0050   15.5293 H         1 UNK         0.2998 
    122 H122      -47.3408  -26.5161   17.0754 H         1 UNK         0.0697 
    123 H123      -46.7628  -28.6777   15.9878 H         1 UNK         0.0825 
    124 H124      -46.2963  -27.3328   14.9585 H         1 UNK         0.0825 
    125 H125      -47.7457  -28.2666   14.5896 H         1 UNK         0.0825 
    126 H126      -48.2511  -25.8005   14.4773 H         1 UNK         0.3029 
    127 H127      -50.5326  -23.2559   15.3368 H         1 UNK         0.0897 
    128 H128      -48.9857  -21.6028   14.3347 H         1 UNK         0.0792 
    129 H129      -48.4364  -22.0205   15.9482 H         1 UNK         0.0792 
    130 H130      -47.6215  -22.7010   14.5460 H         1 UNK         0.0792 
    131 H131      -49.2479  -23.6107   12.8848 H         1 UNK         0.3086 
    132 H132      -50.9733  -26.4036   11.5706 H         1 UNK         0.0583 
    133 H133      -51.5000  -23.3951   11.4116 H         1 UNK         0.1020 
    134 H134      -52.6320  -24.7022   11.2496 H         1 UNK         0.1020 
    135 H135      -53.7739  -24.7806    9.0971 H         1 UNK         0.0694 
    136 H136      -53.0205  -24.8736    7.5266 H         1 UNK         0.0694 
    137 H137      -49.2776  -24.8778   10.1746 H         1 UNK         0.2989 
    138 H138      -46.0726  -25.2925   11.1909 H         1 UNK         0.1055 
    139 H139      -45.6573  -26.8246    9.2275 H         1 UNK         0.0806 
    140 H140      -47.3360  -27.3649    9.3130 H         1 UNK         0.0806 
    141 H141      -46.2334  -27.6997   10.6376 H         1 UNK         0.0806 
    142 H142      -47.3033  -24.9463    8.5813 H         1 UNK         0.3061 
    143 H143      -48.6180  -22.6928    8.2391 H         1 UNK         0.0734 
    144 H144      -48.2527  -20.6871    9.6484 H         1 UNK         0.0832 
    145 H145      -46.5794  -20.5837    9.1189 H         1 UNK         0.0832 
    146 H146      -47.8942  -20.3312    7.9692 H         1 UNK         0.0832 
    147 H147      -46.0412  -21.9766    7.1451 H         1 UNK         0.3156 
    148 H148      -45.7032  -22.8059    4.9511 H         1 UNK         0.0589 
    149 H149      -44.4347  -25.2267    6.3661 H         1 UNK         0.0808 
    150 H150      -43.6685  -24.2693    5.0996 H         1 UNK         0.0808 
    151 H151      -44.0195  -23.5432    6.6584 H         1 UNK         0.0808 
    152 H152      -45.8775  -25.7011    4.4511 H         1 UNK         0.3098 
    153 H153      -48.6181  -25.4797    2.2075 H         1 UNK         0.0720 
    154 H154      -47.0625  -26.9463    0.9491 H         1 UNK         0.0791 
    155 H155      -45.7112  -26.4123    1.9460 H         1 UNK         0.0791 
    156 H156      -46.5351  -25.2719    0.8968 H         1 UNK         0.0791 
    157 H157      -48.9990  -27.1555    3.5523 H         1 UNK         0.3028 
@<TRIPOS>BOND
     1    1    2 1    
     2    1   82 1    
     3    1   83 1    
     4    1   84 1    
     5    2    3 2    
     6    2    4 am   BACKBONE|DICT|INTERRES
     7    4    5 1    
     8    4   85 1    
     9    5    6 1    
    10    5   80 1    
    11    5   86 1    
    12    6    7 1    
    13    6   87 1    
    14    6   88 1    
    15    7    8 1    
    16    8    9 1    
    17    8   89 1    
    18    8   90 1    
    19    9   10 ar   
    20    9   14 ar   
    21   10   11 ar   
    22   10   91 1    
    23   11   12 ar   
    24   11   58 1    
    25   12   13 ar   
    26   12   92 1    
    27   13   14 ar   
    28   13   15 1    
    29   14   93 1    
    30   15   16 1    
    31   15   94 1    
    32   15   95 1    
    33   16   17 1    
    34   17   18 1    
    35   17   96 1    
    36   17   97 1    
    37   18   19 1    
    38   18   22 1    
    39   18   98 1    
    40   19   20 am   BACKBONE|DICT|INTERRES
    41   19   21 2    
    42   20   99 1    
    43   20  100 1    
    44   22   23 am   BACKBONE|DICT|INTERRES
    45   22  101 1    
    46   23   24 2    
    47   23   25 1    
    48   25   26 1    
    49   25   27 1    
    50   25  102 1    
    51   26  103 1    
    52   26  104 1    
    53   26  105 1    
    54   27   28 am   BACKBONE|DICT|INTERRES
    55   27  106 1    
    56   28   29 2    
    57   28   30 1    
    58   30   31 1    
    59   30   32 1    
    60   30  107 1    
    61   31  108 1    
    62   31  109 1    
    63   31  110 1    
    64   32   33 am   BACKBONE|DICT|INTERRES
    65   32  111 1    
    66   33   34 2    
    67   33   35 1    
    68   35   36 1    
    69   35   37 1    
    70   35  112 1    
    71   36  113 1    
    72   36  114 1    
    73   36  115 1    
    74   37   38 am   BACKBONE|DICT|INTERRES
    75   37  116 1    
    76   38   39 2    
    77   38   40 1    
    78   40   41 1    
    79   40   42 1    
    80   40  117 1    
    81   41  118 1    
    82   41  119 1    
    83   41  120 1    
    84   42   43 am   BACKBONE|DICT|INTERRES
    85   42  121 1    
    86   43   44 2    
    87   43   45 1    
    88   45   46 1    
    89   45   47 1    
    90   45  122 1    
    91   46  123 1    
    92   46  124 1    
    93   46  125 1    
    94   47   48 am   BACKBONE|DICT|INTERRES
    95   47  126 1    
    96   48   49 2    
    97   48   50 1    
    98   50   51 1    
    99   50   52 1    
   100   50  127 1    
   101   51  128 1    
   102   51  129 1    
   103   51  130 1    
   104   52   53 am   BACKBONE|DICT|INTERRES
   105   52  131 1    
   106   53   54 2    
   107   53   55 1    
   108   55   56 1    
   109   55   59 1    
   110   55  132 1    
   111   56   57 1    
   112   56  133 1    
   113   56  134 1    
   114   57   58 1    
   115   58  135 1    
   116   58  136 1    
   117   59   60 am   BACKBONE|DICT|INTERRES
   118   59  137 1    
   119   60   61 2    
   120   60   62 1    
   121   62   63 1    
   122   62   64 1    
   123   62  138 1    
   124   63  139 1    
   125   63  140 1    
   126   63  141 1    
   127   64   65 am   BACKBONE|DICT|INTERRES
   128   64  142 1    
   129   65   66 2    
   130   65   67 1    
   131   67   68 1    
   132   67   69 1    
   133   67  143 1    
   134   68  144 1    
   135   68  145 1    
   136   68  146 1    
   137   69   70 am   BACKBONE|DICT|INTERRES
   138   69  147 1    
   139   70   71 2    
   140   70   72 1    
   141   72   73 1    
   142   72   74 1    
   143   72  148 1    
   144   73  149 1    
   145   73  150 1    
   146   73  151 1    
   147   74   75 am   BACKBONE|DICT|INTERRES
   148   74  152 1    
   149   75   76 2    
   150   75   77 1    
   151   77   78 1    
   152   77   79 1    
   153   77  153 1    
   154   78  154 1    
   155   78  155 1    
   156   78  156 1    
   157   79   80 am   BACKBONE|DICT|INTERRES
   158   79  157 1    
   159   80   81 2    
@<TRIPOS>SUBSTRUCTURE
     1 UNK         1 GROUP             0       ****    0 ROOT    
