@<TRIPOS>MOLECULE
3R207
157   159    1
SMALL
USER_CHARGES


@<TRIPOS>ATOM
      1 CA        -53.7264  -25.0603    3.3385 C.3       0 UNK        -0.1975 
      2 C         -53.1142  -25.9111    4.4417 C.2       0 UNK         0.4852 
      3 O         -53.6268  -25.9148    5.5611 O.2       0 UNK        -0.5216 
      4 N         -52.0258  -26.6228    4.1282 N.am      1 UNK        -0.4461 
      5 CA        -51.2515  -27.4560    5.0510 C.3       1 UNK         0.0864 
      6 C6        -51.4268  -28.9746    4.7686 C.3       14 UNK        -0.0898 
      7 S7        -53.1469  -29.5542    4.9769 S.3       14 UNK        -0.2598 
      8 C8        -53.0402  -30.6035    6.4727 C.3       14 UNK         0.0286 
      9 C9        -52.5654  -29.8772    7.7306 C.ar      14 UNK        -0.0844 
     10 C10       -52.9035  -28.5428    7.9755 C.ar      14 UNK        -0.0881 
     11 C11       -52.4140  -27.8796    9.1013 C.ar      14 UNK        -0.0643 
     12 C12       -51.6415  -28.5758   10.0347 C.ar      14 UNK        -0.0930 
     13 C13       -51.3243  -29.9194    9.8232 C.ar      14 UNK        -0.0827 
     14 C14       -51.7788  -30.5591    8.6647 C.ar      14 UNK        -0.1249 
     15 C15       -50.4493  -30.6704   10.8152 C.3       14 UNK         0.0141 
     16 S16       -51.3545  -32.0021   11.6626 S.3       14 UNK        -0.2313 
     17 C17       -52.0520  -31.1603   13.1217 C.3       14 UNK        -0.0915 
     18 CA        -53.5978  -31.0495   13.0495 C.3       13 UNK         0.0968 
     19 C         -54.2247  -31.0246   14.4708 C.2       13 UNK         0.5732 
     20 N         -54.4669  -32.1882   15.0589 N.am      13 UNK        -0.7310 
     21 O         -54.4574  -29.9713   15.0593 O.2       13 UNK        -0.5035 
     22 N         -54.0081  -29.8855   12.2560 N.am      13 UNK        -0.4233 
     23 C         -55.2324  -29.7002   11.7542 C.2       13 UNK         0.4989 
     24 O         -56.1257  -30.5493   11.7819 O.2       13 UNK        -0.4996 
     25 CA        -55.5139  -28.3053   11.1680 C.3       12 UNK         0.0216 
     26 CB        -56.7043  -28.3019   10.1918 C.3       12 UNK        -0.1964 
     27 N         -55.7614  -27.3368   12.2380 N.am      12 UNK        -0.4276 
     28 C         -54.8184  -26.8051   13.0264 C.2       12 UNK         0.5020 
     29 O         -53.6077  -26.9998   12.8753 O.2       12 UNK        -0.5489 
     30 CA        -55.3154  -25.9289   14.1850 C.3       11 UNK         0.0294 
     31 CB        -56.0679  -26.7799   15.2303 C.3       11 UNK        -0.2019 
     32 N         -54.1603  -25.2801   14.7972 N.am      11 UNK        -0.4493 
     33 C         -54.1718  -24.3187   15.7289 C.2       11 UNK         0.4932 
     34 O         -55.2033  -23.7935   16.1517 O.2       11 UNK        -0.5029 
     35 CA        -52.8021  -23.8598   16.2731 C.3       10 UNK         0.0280 
     36 CB        -52.8782  -23.2883   17.7051 C.3       10 UNK        -0.1976 
     37 N         -51.7661  -24.8947   16.1610 N.am      10 UNK        -0.4242 
     38 C         -51.7185  -26.0805   16.7875 C.2       10 UNK         0.5072 
     39 O         -52.5151  -26.4379   17.6561 O.2       10 UNK        -0.5224 
     40 CA        -50.6102  -27.0540   16.3518 C.3       9 UNK         0.0343 
     41 CB        -51.1391  -28.0087   15.2690 C.3       9 UNK        -0.2003 
     42 N         -49.4003  -26.3872   15.8608 N.am      9 UNK        -0.4272 
     43 C         -48.5019  -25.7811   16.6508 C.2       9 UNK         0.4988 
     44 O         -48.6040  -25.7127   17.8764 O.2       9 UNK        -0.5108 
     45 CA        -47.2753  -25.1544   15.9646 C.3       8 UNK         0.0248 
     46 CB        -46.2842  -26.2410   15.5167 C.3       8 UNK        -0.2001 
     47 N         -47.6277  -24.3033   14.8263 N.am      8 UNK        -0.4140 
     48 C         -48.2877  -23.1398   14.9252 C.2       8 UNK         0.5028 
     49 O         -48.6321  -22.6324   15.9930 O.2       8 UNK        -0.5428 
     50 CA        -48.6452  -22.4265   13.6095 C.3       7 UNK         0.0264 
     51 CB        -47.4604  -21.5920   13.0973 C.3       7 UNK        -0.1988 
     52 N         -49.0844  -23.3484   12.5605 N.am      7 UNK        -0.4454 
     53 C         -50.1799  -24.1188   12.6345 C.2       7 UNK         0.5027 
     54 O         -50.9678  -24.1034   13.5778 O.2       7 UNK        -0.5083 
     55 CA        -50.4101  -25.1052   11.4791 C.3       6 UNK         0.0844 
     56 C56       -51.0370  -24.3719   10.2651 C.3       14 UNK        -0.0967 
     57 S57       -51.2355  -25.4327    8.7989 S.3       14 UNK        -0.2604 
     58 C58       -52.6936  -26.4010    9.2884 C.3       14 UNK         0.0134 
     59 N         -49.1795  -25.8356   11.1617 N.am      6 UNK        -0.4116 
     60 C         -48.5599  -26.6894   11.9911 C.2       5 UNK         0.5034 
     61 O         -48.9858  -27.0020   13.1008 O.2       5 UNK        -0.5045 
     62 CA        -47.2113  -27.2599   11.5249 C.3       5 UNK         0.0224 
     63 CB        -47.4173  -28.5625   10.7381 C.3       5 UNK        -0.1978 
     64 N         -46.4490  -26.2994   10.7232 N.am      5 UNK        -0.4737 
     65 C         -45.9210  -25.1699   11.2180 C.2       4 UNK         0.5027 
     66 O         -45.9834  -24.8483   12.4044 O.2       4 UNK        -0.5211 
     67 CA        -45.2791  -24.2140   10.2007 C.3       4 UNK         0.0297 
     68 CB        -43.8604  -24.6764    9.8346 C.3       4 UNK        -0.1993 
     69 N         -46.0865  -24.0817    8.9846 N.am      4 UNK        -0.4486 
     70 C         -47.3181  -23.5598    8.9383 C.2       3 UNK         0.4961 
     71 O         -47.8927  -23.0934    9.9217 O.2       3 UNK        -0.5105 
     72 CA        -48.0575  -23.6107    7.5902 C.3       3 UNK         0.0299 
     73 CB        -47.4858  -22.5853    6.5918 C.3       3 UNK        -0.1972 
     74 N         -48.1457  -24.9602    7.0096 N.am      3 UNK        -0.4305 
     75 C         -47.1619  -25.7306    6.5178 C.2       2 UNK         0.5006 
     76 O         -45.9786  -25.3884    6.4914 O.2       2 UNK        -0.5106 
     77 CA        -47.5343  -27.1342    6.0026 C.3       2 UNK         0.0296 
     78 CB        -46.8648  -28.2202    6.8605 C.3       2 UNK        -0.2002 
     79 N         -48.9787  -27.3895    5.9576 N.am      2 UNK        -0.4032 
     80 C         -49.7723  -27.0499    4.9330 C.2       1 UNK         0.5000 
     81 O         -49.3724  -26.4617    3.9230 O.2       1 UNK        -0.5238 
     82 H82       -53.1782  -25.1512    2.4009 H         1 UNK         0.0889 
     83 H83       -53.7272  -24.0107    3.6311 H         1 UNK         0.0889 
     84 H84       -54.7570  -25.3655    3.1592 H         1 UNK         0.0889 
     85 H85       -51.6036  -26.5196    3.2148 H         1 UNK         0.3028 
     86 H86       -51.5484  -27.2392    6.0772 H         1 UNK         0.0864 
     87 H87       -51.1188  -29.2087    3.7477 H         1 UNK         0.0720 
     88 H88       -50.7797  -29.5660    5.4191 H         1 UNK         0.0720 
     89 H89       -52.3827  -31.4459    6.2523 H         1 UNK         0.0814 
     90 H90       -54.0256  -31.0264    6.6711 H         1 UNK         0.0814 
     91 H91       -53.5159  -28.0013    7.2674 H         1 UNK         0.1469 
     92 H92       -51.2716  -28.0635   10.9119 H         1 UNK         0.1381 
     93 H93       -51.5170  -31.5946    8.4942 H         1 UNK         0.1206 
     94 H94       -49.6082  -31.1093   10.2767 H         1 UNK         0.0813 
     95 H95       -50.0176  -29.9926   11.5523 H         1 UNK         0.0813 
     96 H96       -51.5949  -30.1792   13.2580 H         1 UNK         0.0638 
     97 H97       -51.7399  -31.7530   13.9839 H         1 UNK         0.0638 
     98 H98       -53.9870  -31.9401   12.5516 H         1 UNK         0.0568 
     99 H99       -54.8601  -32.1929   15.9869 H         1 UNK         0.3450 
    100 H100      -54.2680  -33.0603   14.5940 H         1 UNK         0.3450 
    101 H101      -53.3916  -29.0832   12.2861 H         1 UNK         0.2987 
    102 H102      -54.6326  -27.9954   10.6101 H         1 UNK         0.0766 
    103 H103      -56.8371  -27.3217    9.7334 H         1 UNK         0.0798 
    104 H104      -57.6386  -28.5717   10.6857 H         1 UNK         0.0798 
    105 H105      -56.5436  -29.0165    9.3833 H         1 UNK         0.0798 
    106 H106      -56.7303  -27.1441   12.4484 H         1 UNK         0.3198 
    107 H107      -55.9778  -25.1615   13.7798 H         1 UNK         0.0843 
    108 H108      -55.4069  -27.5120   15.6958 H         1 UNK         0.0831 
    109 H109      -56.8976  -27.3283   14.7835 H         1 UNK         0.0831 
    110 H110      -56.4892  -26.1634   16.0241 H         1 UNK         0.0831 
    111 H111      -53.2743  -25.6297   14.4486 H         1 UNK         0.3133 
    112 H112      -52.4797  -23.0485   15.6194 H         1 UNK         0.0566 
    113 H113      -51.8948  -22.9812   18.0613 H         1 UNK         0.0814 
    114 H114      -53.5236  -22.4100   17.7407 H         1 UNK         0.0814 
    115 H115      -53.2814  -24.0137   18.4120 H         1 UNK         0.0814 
    116 H116      -51.1019  -24.7291   15.4096 H         1 UNK         0.3091 
    117 H117      -50.3399  -27.6531   17.2240 H         1 UNK         0.0702 
    118 H118      -50.4000  -28.7694   15.0177 H         1 UNK         0.0785 
    119 H119      -51.3935  -27.4760   14.3520 H         1 UNK         0.0785 
    120 H120      -52.0392  -28.5261   15.6044 H         1 UNK         0.0785 
    121 H121      -49.2246  -26.4477   14.8597 H         1 UNK         0.2998 
    122 H122      -46.7699  -24.5257   16.7009 H         1 UNK         0.0697 
    123 H123      -46.7229  -26.9093   14.7760 H         1 UNK         0.0825 
    124 H124      -45.9700  -26.8540   16.3624 H         1 UNK         0.0825 
    125 H125      -45.3855  -25.8035   15.0813 H         1 UNK         0.0825 
    126 H126      -47.3112  -24.6052   13.9097 H         1 UNK         0.3029 
    127 H127      -49.4748  -21.7478   13.8194 H         1 UNK         0.0897 
    128 H128      -47.7304  -21.0269   12.2049 H         1 UNK         0.0792 
    129 H129      -47.1341  -20.8738   13.8507 H         1 UNK         0.0792 
    130 H130      -46.6023  -22.2171   12.8482 H         1 UNK         0.0792 
    131 H131      -48.5176  -23.3848   11.7163 H         1 UNK         0.3086 
    132 H132      -51.1333  -25.8422   11.8342 H         1 UNK         0.0583 
    133 H133      -52.0127  -23.9614   10.5335 H         1 UNK         0.1020 
    134 H134      -50.4337  -23.5132    9.9690 H         1 UNK         0.1020 
    135 H135      -52.9622  -26.2093   10.3274 H         1 UNK         0.0694 
    136 H136      -53.5484  -26.0858    8.6876 H         1 UNK         0.0694 
    137 H137      -48.7498  -25.6216   10.2758 H         1 UNK         0.2989 
    138 H138      -46.6202  -27.4912   12.4137 H         1 UNK         0.1055 
    139 H139      -47.7529  -29.3566   11.4051 H         1 UNK         0.0806 
    140 H140      -46.4917  -28.9075   10.2770 H         1 UNK         0.0806 
    141 H141      -48.1718  -28.4549    9.9582 H         1 UNK         0.0806 
    142 H142      -46.3422  -26.4912    9.7383 H         1 UNK         0.3061 
    143 H143      -45.2102  -23.2292   10.6679 H         1 UNK         0.0734 
    144 H144      -43.3676  -23.9590    9.1782 H         1 UNK         0.0832 
    145 H145      -43.2408  -24.7760   10.7270 H         1 UNK         0.0832 
    146 H146      -43.8647  -25.6435    9.3302 H         1 UNK         0.0832 
    147 H147      -45.7185  -24.4780    8.1223 H         1 UNK         0.3156 
    148 H148      -49.0884  -23.3151    7.7908 H         1 UNK         0.0589 
    149 H149      -46.4444  -22.7872    6.3400 H         1 UNK         0.0808 
    150 H150      -48.0580  -22.5764    5.6642 H         1 UNK         0.0808 
    151 H151      -47.5264  -21.5774    7.0069 H         1 UNK         0.0808 
    152 H152      -49.0759  -25.3548    7.0103 H         1 UNK         0.3098 
    153 H153      -47.1286  -27.2160    4.9918 H         1 UNK         0.0720 
    154 H154      -47.2164  -28.1918    7.8894 H         1 UNK         0.0791 
    155 H155      -45.7813  -28.0942    6.8818 H         1 UNK         0.0791 
    156 H156      -47.0634  -29.2166    6.4651 H         1 UNK         0.0791 
    157 H157      -49.3785  -27.8782    6.7468 H         1 UNK         0.3028 
@<TRIPOS>BOND
     1    1    2 1    
     2    1   82 1    
     3    1   83 1    
     4    1   84 1    
     5    2    3 2    
     6    2    4 am   BACKBONE|DICT|INTERRES
     7    4    5 1    
     8    4   85 1    
     9    5    6 1    
    10    5   80 1    
    11    5   86 1    
    12    6    7 1    
    13    6   87 1    
    14    6   88 1    
    15    7    8 1    
    16    8    9 1    
    17    8   89 1    
    18    8   90 1    
    19    9   10 ar   
    20    9   14 ar   
    21   10   11 ar   
    22   10   91 1    
    23   11   12 ar   
    24   11   58 1    
    25   12   13 ar   
    26   12   92 1    
    27   13   14 ar   
    28   13   15 1    
    29   14   93 1    
    30   15   16 1    
    31   15   94 1    
    32   15   95 1    
    33   16   17 1    
    34   17   18 1    
    35   17   96 1    
    36   17   97 1    
    37   18   19 1    
    38   18   22 1    
    39   18   98 1    
    40   19   20 am   BACKBONE|DICT|INTERRES
    41   19   21 2    
    42   20   99 1    
    43   20  100 1    
    44   22   23 am   BACKBONE|DICT|INTERRES
    45   22  101 1    
    46   23   24 2    
    47   23   25 1    
    48   25   26 1    
    49   25   27 1    
    50   25  102 1    
    51   26  103 1    
    52   26  104 1    
    53   26  105 1    
    54   27   28 am   BACKBONE|DICT|INTERRES
    55   27  106 1    
    56   28   29 2    
    57   28   30 1    
    58   30   31 1    
    59   30   32 1    
    60   30  107 1    
    61   31  108 1    
    62   31  109 1    
    63   31  110 1    
    64   32   33 am   BACKBONE|DICT|INTERRES
    65   32  111 1    
    66   33   34 2    
    67   33   35 1    
    68   35   36 1    
    69   35   37 1    
    70   35  112 1    
    71   36  113 1    
    72   36  114 1    
    73   36  115 1    
    74   37   38 am   BACKBONE|DICT|INTERRES
    75   37  116 1    
    76   38   39 2    
    77   38   40 1    
    78   40   41 1    
    79   40   42 1    
    80   40  117 1    
    81   41  118 1    
    82   41  119 1    
    83   41  120 1    
    84   42   43 am   BACKBONE|DICT|INTERRES
    85   42  121 1    
    86   43   44 2    
    87   43   45 1    
    88   45   46 1    
    89   45   47 1    
    90   45  122 1    
    91   46  123 1    
    92   46  124 1    
    93   46  125 1    
    94   47   48 am   BACKBONE|DICT|INTERRES
    95   47  126 1    
    96   48   49 2    
    97   48   50 1    
    98   50   51 1    
    99   50   52 1    
   100   50  127 1    
   101   51  128 1    
   102   51  129 1    
   103   51  130 1    
   104   52   53 am   BACKBONE|DICT|INTERRES
   105   52  131 1    
   106   53   54 2    
   107   53   55 1    
   108   55   56 1    
   109   55   59 1    
   110   55  132 1    
   111   56   57 1    
   112   56  133 1    
   113   56  134 1    
   114   57   58 1    
   115   58  135 1    
   116   58  136 1    
   117   59   60 am   BACKBONE|DICT|INTERRES
   118   59  137 1    
   119   60   61 2    
   120   60   62 1    
   121   62   63 1    
   122   62   64 1    
   123   62  138 1    
   124   63  139 1    
   125   63  140 1    
   126   63  141 1    
   127   64   65 am   BACKBONE|DICT|INTERRES
   128   64  142 1    
   129   65   66 2    
   130   65   67 1    
   131   67   68 1    
   132   67   69 1    
   133   67  143 1    
   134   68  144 1    
   135   68  145 1    
   136   68  146 1    
   137   69   70 am   BACKBONE|DICT|INTERRES
   138   69  147 1    
   139   70   71 2    
   140   70   72 1    
   141   72   73 1    
   142   72   74 1    
   143   72  148 1    
   144   73  149 1    
   145   73  150 1    
   146   73  151 1    
   147   74   75 am   BACKBONE|DICT|INTERRES
   148   74  152 1    
   149   75   76 2    
   150   75   77 1    
   151   77   78 1    
   152   77   79 1    
   153   77  153 1    
   154   78  154 1    
   155   78  155 1    
   156   78  156 1    
   157   79   80 am   BACKBONE|DICT|INTERRES
   158   79  157 1    
   159   80   81 2    
@<TRIPOS>SUBSTRUCTURE
     1 UNK         1 GROUP             0       ****    0 ROOT    
