@<TRIPOS>MOLECULE
3R207
157   159    1
SMALL
USER_CHARGES


@<TRIPOS>ATOM
      1 CA        -46.2825  -24.9710   12.3936 C.3       0 UNK        -0.1975 
      2 C         -46.8462  -25.6867   11.1751 C.2       0 UNK         0.4852 
      3 O         -47.9563  -25.3721   10.7490 O.2       0 UNK        -0.5216 
      4 N         -46.0937  -26.6535   10.6308 N.am      1 UNK        -0.4461 
      5 CA        -46.3681  -27.3860    9.3811 C.3       1 UNK         0.0864 
      6 C6        -47.7644  -28.0671    9.3006 C.3       14 UNK        -0.0898 
      7 S7        -48.1088  -29.1193   10.7516 S.3       14 UNK        -0.2598 
      8 C8        -48.8033  -30.6252   10.0068 C.3       14 UNK         0.0286 
      9 C9        -50.3049  -30.4884    9.8244 C.ar      14 UNK        -0.0844 
     10 C10       -50.8267  -29.9261    8.6563 C.ar      14 UNK        -0.0881 
     11 C11       -52.2063  -29.7587    8.5111 C.ar      14 UNK        -0.0643 
     12 C12       -53.0656  -30.2080    9.5169 C.ar      14 UNK        -0.0930 
     13 C13       -52.5557  -30.7525   10.6972 C.ar      14 UNK        -0.0827 
     14 C14       -51.1729  -30.8953   10.8432 C.ar      14 UNK        -0.1249 
     15 C15       -53.4980  -31.1635   11.8197 C.3       14 UNK         0.0141 
     16 S16       -53.9795  -29.7354   12.8488 S.3       14 UNK        -0.2313 
     17 C17       -55.3583  -29.0575   11.8613 C.3       14 UNK        -0.0915 
     18 CA        -56.2089  -27.9554   12.5456 C.3       13 UNK         0.0968 
     19 C         -56.8947  -28.4051   13.8705 C.2       13 UNK         0.5732 
     20 N         -56.8754  -27.6214   14.9429 N.am      13 UNK        -0.7310 
     21 O         -57.4873  -29.4806   13.9197 O.2       13 UNK        -0.5035 
     22 N         -55.4906  -26.6747   12.6175 N.am      13 UNK        -0.4233 
     23 C         -56.0804  -25.4757   12.5317 C.2       13 UNK         0.4989 
     24 O         -57.2847  -25.3212   12.3158 O.2       13 UNK        -0.4996 
     25 CA        -55.1755  -24.2452   12.7490 C.3       12 UNK         0.0216 
     26 CB        -55.9640  -22.9185   12.7785 C.3       12 UNK        -0.1964 
     27 N         -54.3326  -24.3551   13.9464 N.am      12 UNK        -0.4276 
     28 C         -54.7292  -24.6293   15.1980 C.2       12 UNK         0.5020 
     29 O         -55.8966  -24.8457   15.5311 O.2       12 UNK        -0.5489 
     30 CA        -53.6240  -24.7016   16.2649 C.3       11 UNK         0.0294 
     31 CB        -53.8734  -23.6808   17.3877 C.3       11 UNK        -0.2019 
     32 N         -53.5179  -26.0446   16.8402 N.am      11 UNK        -0.4493 
     33 C         -53.1756  -27.1343   16.1432 C.2       11 UNK         0.4932 
     34 O         -52.9393  -27.1304   14.9338 O.2       11 UNK        -0.5029 
     35 CA        -53.0559  -28.4491   16.9166 C.3       10 UNK         0.0280 
     36 CB        -54.3939  -29.2082   16.9483 C.3       10 UNK        -0.1976 
     37 N         -52.0432  -29.2293   16.2221 N.am      10 UNK        -0.4242 
     38 C         -51.3295  -30.2472   16.7065 C.2       10 UNK         0.5072 
     39 O         -51.4915  -30.7401   17.8236 O.2       10 UNK        -0.5224 
     40 CA        -50.2265  -30.7885   15.7824 C.3       9 UNK         0.0343 
     41 CB        -50.8126  -31.7632   14.7507 C.3       9 UNK        -0.2003 
     42 N         -49.5044  -29.7166   15.0873 N.am      9 UNK        -0.4272 
     43 C         -48.6204  -28.9025   15.6822 C.2       9 UNK         0.4988 
     44 O         -48.3203  -28.9678   16.8750 O.2       9 UNK        -0.5108 
     45 CA        -47.9324  -27.8559   14.7924 C.3       8 UNK         0.0248 
     46 CB        -46.8017  -28.5099   13.9825 C.3       8 UNK        -0.2001 
     47 N         -48.8669  -27.1335   13.9149 N.am      8 UNK        -0.4140 
     48 C         -49.6744  -26.1609   14.3704 C.2       8 UNK         0.5028 
     49 O         -49.7444  -25.8529   15.5614 O.2       8 UNK        -0.5428 
     50 CA        -50.5210  -25.3538   13.3709 C.3       7 UNK         0.0264 
     51 CB        -50.0899  -23.8760   13.3600 C.3       7 UNK        -0.1988 
     52 N         -50.4840  -25.8479   11.9934 N.am      7 UNK        -0.4454 
     53 C         -51.5705  -26.2229   11.3009 C.2       7 UNK         0.5027 
     54 O         -52.6907  -26.3475   11.7975 O.2       7 UNK        -0.5083 
     55 CA        -51.3747  -26.4227    9.7825 C.3       6 UNK         0.0844 
     56 C56       -52.6938  -26.7215    9.0137 C.3       14 UNK        -0.0967 
     57 S57       -52.3521  -27.2572    7.2941 S.3       14 UNK        -0.2604 
     58 C58       -52.7745  -29.0342    7.3005 C.3       14 UNK         0.0134 
     59 N         -50.6263  -25.3079    9.1848 N.am      6 UNK        -0.4116 
     60 C         -50.9856  -24.0142    9.1655 C.2       5 UNK         0.5034 
     61 O         -51.9784  -23.5573    9.7339 O.2       5 UNK        -0.5045 
     62 CA        -50.1043  -23.0646    8.3337 C.3       5 UNK         0.0224 
     63 CB        -49.0237  -22.4027    9.2028 C.3       5 UNK        -0.1978 
     64 N         -49.4790  -23.7220    7.1808 N.am      5 UNK        -0.4737 
     65 C         -50.1588  -24.1633    6.1097 C.2       4 UNK         0.5027 
     66 O         -51.3708  -23.9987    5.9628 O.2       4 UNK        -0.5211 
     67 CA        -49.3481  -24.9043    5.0261 C.3       4 UNK         0.0297 
     68 CB        -50.1014  -25.0315    3.6847 C.3       4 UNK        -0.1993 
     69 N         -48.0123  -24.3329    4.8289 N.am      4 UNK        -0.4486 
     70 C         -47.7094  -23.0746    4.4694 C.2       3 UNK         0.4961 
     71 O         -48.5465  -22.2404    4.1213 O.2       3 UNK        -0.5105 
     72 CA        -46.2181  -22.6739    4.5138 C.3       3 UNK         0.0299 
     73 CB        -46.0268  -21.2030    4.9424 C.3       3 UNK        -0.1972 
     74 N         -45.3736  -23.5586    5.3322 N.am      3 UNK        -0.4305 
     75 C         -45.5034  -23.8251    6.6408 C.2       2 UNK         0.5006 
     76 O         -46.3811  -23.3510    7.3654 O.2       2 UNK        -0.5106 
     77 CA        -44.4687  -24.7982    7.2267 C.3       2 UNK         0.0296 
     78 CB        -43.2724  -24.0200    7.7988 C.3       2 UNK        -0.2002 
     79 N         -45.0184  -25.6630    8.2726 N.am      2 UNK        -0.4032 
     80 C         -46.0388  -26.5259    8.1380 C.2       1 UNK         0.5000 
     81 O         -46.6756  -26.6730    7.0910 O.2       1 UNK        -0.5238 
     82 H82       -45.2759  -25.3095   12.6380 H         1 UNK         0.0889 
     83 H83       -46.9167  -25.1407   13.2621 H         1 UNK         0.0889 
     84 H84       -46.2426  -23.8981   12.2076 H         1 UNK         0.0889 
     85 H85       -45.2183  -26.8936   11.0753 H         1 UNK         0.3028 
     86 H86       -45.6331  -28.1922    9.3583 H         1 UNK         0.0864 
     87 H87       -47.8257  -28.6773    8.3984 H         1 UNK         0.0720 
     88 H88       -48.5521  -27.3235    9.2062 H         1 UNK         0.0720 
     89 H89       -48.5874  -31.4694   10.6634 H         1 UNK         0.0814 
     90 H90       -48.3137  -30.8500    9.0583 H         1 UNK         0.0814 
     91 H91       -50.1607  -29.5770    7.8792 H         1 UNK         0.1469 
     92 H92       -54.1334  -30.0925    9.3986 H         1 UNK         0.1381 
     93 H93       -50.7686  -31.3116   11.7550 H         1 UNK         0.1206 
     94 H94       -53.0223  -31.9139   12.4514 H         1 UNK         0.0813 
     95 H95       -54.3858  -31.6458   11.4087 H         1 UNK         0.0813 
     96 H96       -56.0067  -29.8848   11.5680 H         1 UNK         0.0638 
     97 H97       -54.9493  -28.6561   10.9350 H         1 UNK         0.0638 
     98 H98       -57.0495  -27.7989   11.8672 H         1 UNK         0.0568 
     99 H99       -56.4402  -26.7058   14.9224 H         1 UNK         0.3450 
    100 H100      -57.3446  -27.9304   15.7780 H         1 UNK         0.3450 
    101 H101      -54.4872  -26.7271   12.7704 H         1 UNK         0.2987 
    102 H102      -54.4984  -24.2099   11.8937 H         1 UNK         0.0766 
    103 H103      -56.5257  -22.7756   11.8545 H         1 UNK         0.0798 
    104 H104      -55.2970  -22.0631   12.8856 H         1 UNK         0.0798 
    105 H105      -56.6781  -22.8923   13.6025 H         1 UNK         0.0798 
    106 H106      -53.3418  -24.2691   13.7733 H         1 UNK         0.3198 
    107 H107      -52.6636  -24.4625   15.8028 H         1 UNK         0.0843 
    108 H108      -54.8025  -23.8855   17.9215 H         1 UNK         0.0831 
    109 H109      -53.9467  -22.6698   16.9846 H         1 UNK         0.0831 
    110 H110      -53.0603  -23.6807   18.1139 H         1 UNK         0.0831 
    111 H111      -53.7294  -26.1368   17.8232 H         1 UNK         0.3133 
    112 H112      -52.7170  -28.2403   17.9333 H         1 UNK         0.0566 
    113 H113      -54.3108  -30.1397   17.5080 H         1 UNK         0.0814 
    114 H114      -54.7380  -29.4526   15.9425 H         1 UNK         0.0814 
    115 H115      -55.1720  -28.6107   17.4245 H         1 UNK         0.0814 
    116 H116      -51.8408  -28.8723   15.2953 H         1 UNK         0.3091 
    117 H117      -49.5135  -31.3390   16.4003 H         1 UNK         0.0702 
    118 H118      -50.0326  -32.2039   14.1296 H         1 UNK         0.0785 
    119 H119      -51.5253  -31.2632   14.0965 H         1 UNK         0.0785 
    120 H120      -51.3391  -32.5826   15.2420 H         1 UNK         0.0785 
    121 H121      -49.6860  -29.5990   14.1014 H         1 UNK         0.2998 
    122 H122      -47.4641  -27.1221   15.4527 H         1 UNK         0.0697 
    123 H123      -47.1557  -29.3570   13.3966 H         1 UNK         0.0825 
    124 H124      -46.0268  -28.8914   14.6486 H         1 UNK         0.0825 
    125 H125      -46.3226  -27.8033   13.3077 H         1 UNK         0.0825 
    126 H126      -48.8671  -27.3626   12.9308 H         1 UNK         0.3029 
    127 H127      -51.5396  -25.3898   13.7533 H         1 UNK         0.0897 
    128 H128      -49.0725  -23.7559   12.9866 H         1 UNK         0.0792 
    129 H129      -50.1250  -23.4444   14.3613 H         1 UNK         0.0792 
    130 H130      -50.7471  -23.2784   12.7276 H         1 UNK         0.0792 
    131 H131      -49.6058  -25.7232   11.4893 H         1 UNK         0.3086 
    132 H132      -50.7442  -27.3063    9.6996 H         1 UNK         0.0583 
    133 H133      -53.2837  -27.4811    9.5256 H         1 UNK         0.1020 
    134 H134      -53.3294  -25.8352    8.9842 H         1 UNK         0.1020 
    135 H135      -53.8603  -29.1352    7.2635 H         1 UNK         0.0694 
    136 H136      -52.3922  -29.4945    6.3885 H         1 UNK         0.0694 
    137 H137      -49.7662  -25.5536    8.7186 H         1 UNK         0.2989 
    138 H138      -50.7583  -22.2762    7.9543 H         1 UNK         0.1055 
    139 H139      -48.2772  -23.1215    9.5390 H         1 UNK         0.0806 
    140 H140      -49.4594  -21.9424   10.0907 H         1 UNK         0.0806 
    141 H141      -48.5013  -21.6199    8.6526 H         1 UNK         0.0806 
    142 H142      -48.4697  -23.8289    7.2072 H         1 UNK         0.3061 
    143 H143      -49.1916  -25.9135    5.4108 H         1 UNK         0.0734 
    144 H144      -50.3521  -24.0564    3.2661 H         1 UNK         0.0832 
    145 H145      -49.5103  -25.5731    2.9464 H         1 UNK         0.0832 
    146 H146      -51.0362  -25.5784    3.8143 H         1 UNK         0.0832 
    147 H147      -47.2461  -24.9292    5.1126 H         1 UNK         0.3156 
    148 H148      -45.8529  -22.7693    3.4902 H         1 UNK         0.0589 
    149 H149      -44.9724  -20.9270    4.9571 H         1 UNK         0.0808 
    150 H150      -46.5268  -20.5230    4.2515 H         1 UNK         0.0808 
    151 H151      -46.4368  -21.0155    5.9355 H         1 UNK         0.0808 
    152 H152      -44.6206  -24.0120    4.8317 H         1 UNK         0.3098 
    153 H153      -44.1106  -25.4493    6.4266 H         1 UNK         0.0720 
    154 H154      -42.8171  -23.3844    7.0379 H         1 UNK         0.0791 
    155 H155      -42.4953  -24.6930    8.1618 H         1 UNK         0.0791 
    156 H156      -43.5716  -23.3735    8.6252 H         1 UNK         0.0791 
    157 H157      -44.5874  -25.5873    9.1810 H         1 UNK         0.3028 
@<TRIPOS>BOND
     1    1    2 1    
     2    1   82 1    
     3    1   83 1    
     4    1   84 1    
     5    2    3 2    
     6    2    4 am   BACKBONE|DICT|INTERRES
     7    4    5 1    
     8    4   85 1    
     9    5    6 1    
    10    5   80 1    
    11    5   86 1    
    12    6    7 1    
    13    6   87 1    
    14    6   88 1    
    15    7    8 1    
    16    8    9 1    
    17    8   89 1    
    18    8   90 1    
    19    9   10 ar   
    20    9   14 ar   
    21   10   11 ar   
    22   10   91 1    
    23   11   12 ar   
    24   11   58 1    
    25   12   13 ar   
    26   12   92 1    
    27   13   14 ar   
    28   13   15 1    
    29   14   93 1    
    30   15   16 1    
    31   15   94 1    
    32   15   95 1    
    33   16   17 1    
    34   17   18 1    
    35   17   96 1    
    36   17   97 1    
    37   18   19 1    
    38   18   22 1    
    39   18   98 1    
    40   19   20 am   BACKBONE|DICT|INTERRES
    41   19   21 2    
    42   20   99 1    
    43   20  100 1    
    44   22   23 am   BACKBONE|DICT|INTERRES
    45   22  101 1    
    46   23   24 2    
    47   23   25 1    
    48   25   26 1    
    49   25   27 1    
    50   25  102 1    
    51   26  103 1    
    52   26  104 1    
    53   26  105 1    
    54   27   28 am   BACKBONE|DICT|INTERRES
    55   27  106 1    
    56   28   29 2    
    57   28   30 1    
    58   30   31 1    
    59   30   32 1    
    60   30  107 1    
    61   31  108 1    
    62   31  109 1    
    63   31  110 1    
    64   32   33 am   BACKBONE|DICT|INTERRES
    65   32  111 1    
    66   33   34 2    
    67   33   35 1    
    68   35   36 1    
    69   35   37 1    
    70   35  112 1    
    71   36  113 1    
    72   36  114 1    
    73   36  115 1    
    74   37   38 am   BACKBONE|DICT|INTERRES
    75   37  116 1    
    76   38   39 2    
    77   38   40 1    
    78   40   41 1    
    79   40   42 1    
    80   40  117 1    
    81   41  118 1    
    82   41  119 1    
    83   41  120 1    
    84   42   43 am   BACKBONE|DICT|INTERRES
    85   42  121 1    
    86   43   44 2    
    87   43   45 1    
    88   45   46 1    
    89   45   47 1    
    90   45  122 1    
    91   46  123 1    
    92   46  124 1    
    93   46  125 1    
    94   47   48 am   BACKBONE|DICT|INTERRES
    95   47  126 1    
    96   48   49 2    
    97   48   50 1    
    98   50   51 1    
    99   50   52 1    
   100   50  127 1    
   101   51  128 1    
   102   51  129 1    
   103   51  130 1    
   104   52   53 am   BACKBONE|DICT|INTERRES
   105   52  131 1    
   106   53   54 2    
   107   53   55 1    
   108   55   56 1    
   109   55   59 1    
   110   55  132 1    
   111   56   57 1    
   112   56  133 1    
   113   56  134 1    
   114   57   58 1    
   115   58  135 1    
   116   58  136 1    
   117   59   60 am   BACKBONE|DICT|INTERRES
   118   59  137 1    
   119   60   61 2    
   120   60   62 1    
   121   62   63 1    
   122   62   64 1    
   123   62  138 1    
   124   63  139 1    
   125   63  140 1    
   126   63  141 1    
   127   64   65 am   BACKBONE|DICT|INTERRES
   128   64  142 1    
   129   65   66 2    
   130   65   67 1    
   131   67   68 1    
   132   67   69 1    
   133   67  143 1    
   134   68  144 1    
   135   68  145 1    
   136   68  146 1    
   137   69   70 am   BACKBONE|DICT|INTERRES
   138   69  147 1    
   139   70   71 2    
   140   70   72 1    
   141   72   73 1    
   142   72   74 1    
   143   72  148 1    
   144   73  149 1    
   145   73  150 1    
   146   73  151 1    
   147   74   75 am   BACKBONE|DICT|INTERRES
   148   74  152 1    
   149   75   76 2    
   150   75   77 1    
   151   77   78 1    
   152   77   79 1    
   153   77  153 1    
   154   78  154 1    
   155   78  155 1    
   156   78  156 1    
   157   79   80 am   BACKBONE|DICT|INTERRES
   158   79  157 1    
   159   80   81 2    
@<TRIPOS>SUBSTRUCTURE
     1 UNK         1 GROUP             0       ****    0 ROOT    
