@<TRIPOS>MOLECULE
3R207
157   159    1
SMALL
USER_CHARGES


@<TRIPOS>ATOM
      1 CA        -45.5025  -29.2097    3.0226 C.3       0 UNK        -0.1975 
      2 C         -46.9765  -29.1813    3.3989 C.2       0 UNK         0.4852 
      3 O         -47.8327  -29.1629    2.5141 O.2       0 UNK        -0.5216 
      4 N         -47.2778  -29.1745    4.7056 N.am      1 UNK        -0.4461 
      5 CA        -48.6418  -29.1371    5.2547 C.3       1 UNK         0.0864 
      6 C6        -48.6547  -29.5848    6.7434 C.3       14 UNK        -0.0898 
      7 S7        -50.1150  -30.5939    7.1728 S.3       14 UNK        -0.2598 
      8 C8        -50.4060  -30.1270    8.9142 C.3       14 UNK         0.0286 
      9 C9        -51.4838  -29.0599    9.0741 C.ar      14 UNK        -0.0844 
     10 C10       -51.4078  -27.8587    8.3680 C.ar      14 UNK        -0.0881 
     11 C11       -52.3809  -26.8708    8.5254 C.ar      14 UNK        -0.0643 
     12 C12       -53.4442  -27.0889    9.4046 C.ar      14 UNK        -0.0930 
     13 C13       -53.5420  -28.2860   10.1224 C.ar      14 UNK        -0.0827 
     14 C14       -52.5522  -29.2641    9.9529 C.ar      14 UNK        -0.1249 
     15 C15       -54.7042  -28.4684   11.0966 C.3       14 UNK         0.0141 
     16 S16       -55.4101  -30.1528   11.1420 S.3       14 UNK        -0.2313 
     17 C17       -54.4462  -30.9134   12.4940 C.3       14 UNK        -0.0915 
     18 CA        -55.1717  -30.8747   13.8666 C.3       13 UNK         0.0968 
     19 C         -54.3123  -31.5529   14.9716 C.2       13 UNK         0.5732 
     20 N         -53.8576  -30.8383   15.9963 N.am      13 UNK        -0.7310 
     21 O         -54.0622  -32.7538   14.9023 O.2       13 UNK        -0.5035 
     22 N         -55.6109  -29.5170   14.2272 N.am      13 UNK        -0.4233 
     23 C         -56.7336  -29.2327   14.8973 C.2       13 UNK         0.4989 
     24 O         -57.5509  -30.0823   15.2550 O.2       13 UNK        -0.4996 
     25 CA        -57.0005  -27.7579   15.2378 C.3       12 UNK         0.0216 
     26 CB        -56.9477  -27.5444   16.7609 C.3       12 UNK        -0.1964 
     27 N         -56.0353  -26.8491   14.6149 N.am      12 UNK        -0.4276 
     28 C         -56.2828  -26.0376   13.5765 C.2       12 UNK         0.5020 
     29 O         -57.3396  -26.0544   12.9437 O.2       12 UNK        -0.5489 
     30 CA        -55.1710  -25.0413   13.1642 C.3       11 UNK         0.0294 
     31 CB        -55.7426  -23.6825   12.7108 C.3       11 UNK        -0.2019 
     32 N         -54.1257  -24.8467   14.1789 N.am      11 UNK        -0.4493 
     33 C         -54.2771  -24.4461   15.4521 C.2       11 UNK         0.4932 
     34 O         -55.3349  -24.0140   15.9121 O.2       11 UNK        -0.5029 
     35 CA        -53.0588  -24.6192   16.3833 C.3       10 UNK         0.0280 
     36 CB        -53.4759  -24.8657   17.8483 C.3       10 UNK        -0.1976 
     37 N         -52.1140  -25.6594   15.9490 N.am      10 UNK        -0.4242 
     38 C         -52.3600  -26.9607   15.7173 C.2       10 UNK         0.5072 
     39 O         -53.4748  -27.4765   15.8381 O.2       10 UNK        -0.5224 
     40 CA        -51.1996  -27.8353   15.2000 C.3       9 UNK         0.0343 
     41 CB        -51.5680  -28.4488   13.8407 C.3       9 UNK        -0.2003 
     42 N         -49.9322  -27.1163   15.0565 N.am      9 UNK        -0.4272 
     43 C         -49.0831  -26.8408   16.0560 C.2       9 UNK         0.4988 
     44 O         -49.2318  -27.2364   17.2122 O.2       9 UNK        -0.5108 
     45 CA        -47.8935  -25.9233   15.7165 C.3       8 UNK         0.0248 
     46 CB        -46.7269  -26.7394   15.1392 C.3       8 UNK        -0.2001 
     47 N         -48.2512  -24.8420   14.7900 N.am      8 UNK        -0.4140 
     48 C         -49.1660  -23.8942   15.0453 C.2       8 UNK         0.5028 
     49 O         -49.7704  -23.7984   16.1126 O.2       8 UNK        -0.5428 
     50 CA        -49.5150  -22.9271   13.9056 C.3       7 UNK         0.0264 
     51 CB        -48.5004  -21.7749   13.8279 C.3       7 UNK        -0.1988 
     52 N         -49.5977  -23.6056   12.6126 N.am      7 UNK        -0.4454 
     53 C         -50.5677  -24.4619   12.2561 C.2       7 UNK         0.5027 
     54 O         -51.5229  -24.7619   12.9737 O.2       7 UNK        -0.5083 
     55 CA        -50.4231  -25.1084   10.8655 C.3       6 UNK         0.0844 
     56 C56       -50.9351  -24.1277    9.7773 C.3       14 UNK        -0.0967 
     57 S57       -50.7027  -24.7153    8.0666 S.3       14 UNK        -0.2604 
     58 C58       -52.2737  -25.5729    7.7402 C.3       14 UNK         0.0134 
     59 N         -49.0489  -25.5689   10.6375 N.am      6 UNK        -0.4116 
     60 C         -48.4503  -26.5449   11.3405 C.2       5 UNK         0.5034 
     61 O         -49.0052  -27.1841   12.2332 O.2       5 UNK        -0.5045 
     62 CA        -46.9653  -26.8289   11.0438 C.3       5 UNK         0.0224 
     63 CB        -46.8351  -27.8890    9.9394 C.3       5 UNK        -0.1978 
     64 N         -46.2032  -25.6397   10.6585 N.am      5 UNK        -0.4737 
     65 C         -46.0981  -24.5105   11.3734 C.2       4 UNK         0.5027 
     66 O         -46.5346  -24.3880   12.5175 O.2       4 UNK        -0.5211 
     67 CA        -45.4609  -23.2936   10.6725 C.3       4 UNK         0.0297 
     68 CB        -44.0219  -23.0871   11.1697 C.3       4 UNK        -0.1993 
     69 N         -45.4635  -23.3608    9.2019 N.am      4 UNK        -0.4486 
     70 C         -46.5485  -23.5069    8.4259 C.2       3 UNK         0.4961 
     71 O         -47.6928  -23.5904    8.8767 O.2       3 UNK        -0.5105 
     72 CA        -46.3197  -23.6446    6.9113 C.3       3 UNK         0.0299 
     73 CB        -45.0021  -24.3791    6.5666 C.3       3 UNK        -0.1972 
     74 N         -47.4624  -24.3525    6.3329 N.am      3 UNK        -0.4305 
     75 C         -47.7823  -24.4046    5.0356 C.2       2 UNK         0.5006 
     76 O         -47.1503  -23.8265    4.1494 O.2       2 UNK        -0.5106 
     77 CA        -48.9567  -25.3218    4.6683 C.3       2 UNK         0.0296 
     78 CB        -49.4291  -25.1418    3.2099 C.3       2 UNK        -0.2002 
     79 N         -48.5305  -26.7002    4.9006 N.am      2 UNK        -0.4032 
     80 C         -49.3307  -27.7647    5.0500 C.2       1 UNK         0.5000 
     81 O         -50.5603  -27.7007    5.0188 O.2       1 UNK        -0.5238 
     82 H82       -44.8565  -29.2260    3.9002 H         1 UNK         0.0889 
     83 H83       -45.2494  -28.3299    2.4315 H         1 UNK         0.0889 
     84 H84       -45.2853  -30.0951    2.4258 H         1 UNK         0.0889 
     85 H85       -46.5292  -29.2092    5.3834 H         1 UNK         0.3028 
     86 H86       -49.2220  -29.8593    4.6753 H         1 UNK         0.0864 
     87 H87       -48.5627  -28.7329    7.4179 H         1 UNK         0.0720 
     88 H88       -47.7901  -30.2149    6.9590 H         1 UNK         0.0720 
     89 H89       -49.4813  -29.7803    9.3759 H         1 UNK         0.0814 
     90 H90       -50.6906  -31.0303    9.4559 H         1 UNK         0.0814 
     91 H91       -50.5872  -27.6810    7.6911 H         1 UNK         0.1469 
     92 H92       -54.1956  -26.3217    9.5320 H         1 UNK         0.1381 
     93 H93       -52.6070  -30.1911   10.5030 H         1 UNK         0.1206 
     94 H94       -55.5166  -27.7888   10.8340 H         1 UNK         0.0813 
     95 H95       -54.3723  -28.1716   12.0908 H         1 UNK         0.0813 
     96 H96       -54.2512  -31.9480   12.2060 H         1 UNK         0.0638 
     97 H97       -53.4695  -30.4380   12.5564 H         1 UNK         0.0638 
     98 H98       -56.0600  -31.5009   13.7635 H         1 UNK         0.0568 
     99 H99       -54.0439  -29.8488   16.0620 H         1 UNK         0.3450 
    100 H100      -53.3102  -31.2961   16.7072 H         1 UNK         0.3450 
    101 H101      -54.9782  -28.7640   14.0105 H         1 UNK         0.2987 
    102 H102      -58.0112  -27.5254   14.8962 H         1 UNK         0.0766 
    103 H103      -57.6818  -28.1688   17.2721 H         1 UNK         0.0798 
    104 H104      -57.1663  -26.5086   17.0221 H         1 UNK         0.0798 
    105 H105      -55.9667  -27.7909   17.1698 H         1 UNK         0.0798 
    106 H106      -55.1258  -26.7969   15.0684 H         1 UNK         0.3198 
    107 H107      -54.6704  -25.4899   12.3049 H         1 UNK         0.0843 
    108 H108      -54.9490  -23.0024   12.4015 H         1 UNK         0.0831 
    109 H109      -56.3101  -23.1978   13.5057 H         1 UNK         0.0831 
    110 H110      -56.4139  -23.8025   11.8596 H         1 UNK         0.0831 
    111 H111      -53.1812  -25.0805   13.8778 H         1 UNK         0.3133 
    112 H112      -52.5135  -23.6756   16.3449 H         1 UNK         0.0566 
    113 H113      -52.6050  -24.9717   18.4951 H         1 UNK         0.0814 
    114 H114      -54.0807  -25.7678   17.9486 H         1 UNK         0.0814 
    115 H115      -54.0648  -24.0337   18.2361 H         1 UNK         0.0814 
    116 H116      -51.1676  -25.3254   15.8057 H         1 UNK         0.3091 
    117 H117      -51.0653  -28.6488   15.9158 H         1 UNK         0.0702 
    118 H118      -50.7847  -29.1140   13.4768 H         1 UNK         0.0785 
    119 H119      -51.7373  -27.6842   13.0808 H         1 UNK         0.0785 
    120 H120      -52.4783  -29.0372   13.9261 H         1 UNK         0.0785 
    121 H121      -49.6938  -26.8144   14.1168 H         1 UNK         0.2998 
    122 H122      -47.5569  -25.4575   16.6449 H         1 UNK         0.0697 
    123 H123      -47.0213  -27.2793   14.2399 H         1 UNK         0.0825 
    124 H124      -46.3768  -27.4790   15.8605 H         1 UNK         0.0825 
    125 H125      -45.8784  -26.1025   14.8879 H         1 UNK         0.0825 
    126 H126      -47.7489  -24.8037   13.9055 H         1 UNK         0.3029 
    127 H127      -50.4967  -22.5004   14.1242 H         1 UNK         0.0897 
    128 H128      -48.4531  -21.2357   14.7750 H         1 UNK         0.0792 
    129 H129      -48.7778  -21.0533   13.0593 H         1 UNK         0.0792 
    130 H130      -47.4936  -22.1305   13.6068 H         1 UNK         0.0792 
    131 H131      -48.8260  -23.4615   11.9767 H         1 UNK         0.3086 
    132 H132      -51.0628  -25.9927   10.8553 H         1 UNK         0.0583 
    133 H133      -51.9920  -23.9038    9.9353 H         1 UNK         0.1020 
    134 H134      -50.4137  -23.1710    9.8508 H         1 UNK         0.1020 
    135 H135      -53.1077  -24.9040    7.9580 H         1 UNK         0.0694 
    136 H136      -52.3304  -25.8037    6.6754 H         1 UNK         0.0694 
    137 H137      -48.5193  -25.0556    9.9399 H         1 UNK         0.2989 
    138 H138      -46.5163  -27.2250   11.9559 H         1 UNK         0.1055 
    139 H139      -47.2323  -27.5298    8.9898 H         1 UNK         0.0806 
    140 H140      -45.7946  -28.1742    9.7827 H         1 UNK         0.0806 
    141 H141      -47.3798  -28.7963   10.2035 H         1 UNK         0.0806 
    142 H142      -45.7983  -25.6421    9.7344 H         1 UNK         0.3061 
    143 H143      -46.0504  -22.4201   10.9583 H         1 UNK         0.0734 
    144 H144      -43.3737  -23.9179   10.8882 H         1 UNK         0.0832 
    145 H145      -43.5893  -22.1701   10.7692 H         1 UNK         0.0832 
    146 H146      -43.9931  -23.0065   12.2576 H         1 UNK         0.0832 
    147 H147      -44.5614  -23.3082    8.7508 H         1 UNK         0.3156 
    148 H148      -46.2888  -22.6355    6.4960 H         1 UNK         0.0589 
    149 H149      -44.8842  -24.5096    5.4910 H         1 UNK         0.0808 
    150 H150      -44.1285  -23.8195    6.9019 H         1 UNK         0.0808 
    151 H151      -44.9604  -25.3687    7.0234 H         1 UNK         0.0808 
    152 H152      -48.0848  -24.7667    7.0169 H         1 UNK         0.3098 
    153 H153      -49.7895  -25.0840    5.3313 H         1 UNK         0.0720 
    154 H154      -49.6978  -24.1034    3.0121 H         1 UNK         0.0791 
    155 H155      -50.3100  -25.7479    2.9987 H         1 UNK         0.0791 
    156 H156      -48.6526  -25.4227    2.4973 H         1 UNK         0.0791 
    157 H157      -47.5310  -26.8443    4.9410 H         1 UNK         0.3028 
@<TRIPOS>BOND
     1    1    2 1    
     2    1   82 1    
     3    1   83 1    
     4    1   84 1    
     5    2    3 2    
     6    2    4 am   BACKBONE|DICT|INTERRES
     7    4    5 1    
     8    4   85 1    
     9    5    6 1    
    10    5   80 1    
    11    5   86 1    
    12    6    7 1    
    13    6   87 1    
    14    6   88 1    
    15    7    8 1    
    16    8    9 1    
    17    8   89 1    
    18    8   90 1    
    19    9   10 ar   
    20    9   14 ar   
    21   10   11 ar   
    22   10   91 1    
    23   11   12 ar   
    24   11   58 1    
    25   12   13 ar   
    26   12   92 1    
    27   13   14 ar   
    28   13   15 1    
    29   14   93 1    
    30   15   16 1    
    31   15   94 1    
    32   15   95 1    
    33   16   17 1    
    34   17   18 1    
    35   17   96 1    
    36   17   97 1    
    37   18   19 1    
    38   18   22 1    
    39   18   98 1    
    40   19   20 am   BACKBONE|DICT|INTERRES
    41   19   21 2    
    42   20   99 1    
    43   20  100 1    
    44   22   23 am   BACKBONE|DICT|INTERRES
    45   22  101 1    
    46   23   24 2    
    47   23   25 1    
    48   25   26 1    
    49   25   27 1    
    50   25  102 1    
    51   26  103 1    
    52   26  104 1    
    53   26  105 1    
    54   27   28 am   BACKBONE|DICT|INTERRES
    55   27  106 1    
    56   28   29 2    
    57   28   30 1    
    58   30   31 1    
    59   30   32 1    
    60   30  107 1    
    61   31  108 1    
    62   31  109 1    
    63   31  110 1    
    64   32   33 am   BACKBONE|DICT|INTERRES
    65   32  111 1    
    66   33   34 2    
    67   33   35 1    
    68   35   36 1    
    69   35   37 1    
    70   35  112 1    
    71   36  113 1    
    72   36  114 1    
    73   36  115 1    
    74   37   38 am   BACKBONE|DICT|INTERRES
    75   37  116 1    
    76   38   39 2    
    77   38   40 1    
    78   40   41 1    
    79   40   42 1    
    80   40  117 1    
    81   41  118 1    
    82   41  119 1    
    83   41  120 1    
    84   42   43 am   BACKBONE|DICT|INTERRES
    85   42  121 1    
    86   43   44 2    
    87   43   45 1    
    88   45   46 1    
    89   45   47 1    
    90   45  122 1    
    91   46  123 1    
    92   46  124 1    
    93   46  125 1    
    94   47   48 am   BACKBONE|DICT|INTERRES
    95   47  126 1    
    96   48   49 2    
    97   48   50 1    
    98   50   51 1    
    99   50   52 1    
   100   50  127 1    
   101   51  128 1    
   102   51  129 1    
   103   51  130 1    
   104   52   53 am   BACKBONE|DICT|INTERRES
   105   52  131 1    
   106   53   54 2    
   107   53   55 1    
   108   55   56 1    
   109   55   59 1    
   110   55  132 1    
   111   56   57 1    
   112   56  133 1    
   113   56  134 1    
   114   57   58 1    
   115   58  135 1    
   116   58  136 1    
   117   59   60 am   BACKBONE|DICT|INTERRES
   118   59  137 1    
   119   60   61 2    
   120   60   62 1    
   121   62   63 1    
   122   62   64 1    
   123   62  138 1    
   124   63  139 1    
   125   63  140 1    
   126   63  141 1    
   127   64   65 am   BACKBONE|DICT|INTERRES
   128   64  142 1    
   129   65   66 2    
   130   65   67 1    
   131   67   68 1    
   132   67   69 1    
   133   67  143 1    
   134   68  144 1    
   135   68  145 1    
   136   68  146 1    
   137   69   70 am   BACKBONE|DICT|INTERRES
   138   69  147 1    
   139   70   71 2    
   140   70   72 1    
   141   72   73 1    
   142   72   74 1    
   143   72  148 1    
   144   73  149 1    
   145   73  150 1    
   146   73  151 1    
   147   74   75 am   BACKBONE|DICT|INTERRES
   148   74  152 1    
   149   75   76 2    
   150   75   77 1    
   151   77   78 1    
   152   77   79 1    
   153   77  153 1    
   154   78  154 1    
   155   78  155 1    
   156   78  156 1    
   157   79   80 am   BACKBONE|DICT|INTERRES
   158   79  157 1    
   159   80   81 2    
@<TRIPOS>SUBSTRUCTURE
     1 UNK         1 GROUP             0       ****    0 ROOT    
