@<TRIPOS>MOLECULE
3R207
157   159    1
SMALL
USER_CHARGES


@<TRIPOS>ATOM
      1 CA        -46.9438  -30.1509    8.4680 C.3       0 UNK        -0.1975 
      2 C         -47.6561  -29.0809    7.6559 C.2       0 UNK         0.4852 
      3 O         -48.0603  -28.0663    8.2187 O.2       0 UNK        -0.5216 
      4 N         -47.8187  -29.3065    6.3448 N.am      1 UNK        -0.4461 
      5 CA        -48.4376  -28.3916    5.3714 C.3       1 UNK         0.0864 
      6 C6        -49.9045  -27.9852    5.6997 C.3       14 UNK        -0.0898 
      7 S7        -50.9967  -29.4098    6.0337 S.3       14 UNK        -0.2598 
      8 C8        -51.5002  -29.0836    7.7546 C.3       14 UNK         0.0286 
      9 C9        -52.6955  -28.1437    7.8230 C.ar      14 UNK        -0.0844 
     10 C10       -52.5158  -26.7562    7.8674 C.ar      14 UNK        -0.0881 
     11 C11       -53.6202  -25.9001    7.9389 C.ar      14 UNK        -0.0643 
     12 C12       -54.9084  -26.4414    7.9676 C.ar      14 UNK        -0.0930 
     13 C13       -55.1000  -27.8241    7.9273 C.ar      14 UNK        -0.0827 
     14 C14       -53.9906  -28.6704    7.8522 C.ar      14 UNK        -0.1249 
     15 C15       -56.5091  -28.3962    7.9603 C.3       14 UNK         0.0141 
     16 S16       -57.1690  -28.4489    9.6551 S.3       14 UNK        -0.2313 
     17 C17       -56.1642  -29.7881   10.3749 C.3       14 UNK        -0.0915 
     18 CA        -56.7761  -30.3374   11.6872 C.3       13 UNK         0.0968 
     19 C         -56.0278  -31.6208   12.1415 C.2       13 UNK         0.5732 
     20 N         -56.4515  -32.7849   11.6685 N.am      13 UNK        -0.7310 
     21 O         -55.0478  -31.5678   12.8829 O.2       13 UNK        -0.5035 
     22 N         -56.7953  -29.3072   12.7335 N.am      13 UNK        -0.4233 
     23 C         -57.4327  -29.4085   13.9040 C.2       13 UNK         0.4989 
     24 O         -58.1948  -30.3333   14.1935 O.2       13 UNK        -0.4996 
     25 CA        -57.1269  -28.3033   14.9327 C.3       12 UNK         0.0216 
     26 CB        -58.0049  -28.4031   16.1947 C.3       12 UNK        -0.1964 
     27 N         -55.7166  -28.3509   15.3273 N.am      12 UNK        -0.4276 
     28 C         -54.7039  -27.8406   14.6166 C.2       12 UNK         0.5020 
     29 O         -54.8561  -27.2085   13.5686 O.2       12 UNK        -0.5489 
     30 CA        -53.2857  -28.1282   15.1319 C.3       11 UNK         0.0294 
     31 CB        -52.4833  -28.9292   14.0928 C.3       11 UNK        -0.2019 
     32 N         -52.5660  -26.8982   15.4579 N.am      11 UNK        -0.4493 
     33 C         -52.8497  -26.0992   16.4974 C.2       11 UNK         0.4932 
     34 O         -53.7886  -26.2968   17.2711 O.2       11 UNK        -0.5029 
     35 CA        -51.9006  -24.9033   16.7277 C.3       10 UNK         0.0280 
     36 CB        -52.0303  -24.2874   18.1371 C.3       10 UNK        -0.1976 
     37 N         -50.5023  -25.2299   16.4222 N.am      10 UNK        -0.4242 
     38 C         -49.7430  -26.1828   16.9881 C.2       10 UNK         0.5072 
     39 O         -50.0887  -26.8490   17.9649 O.2       10 UNK        -0.5224 
     40 CA        -48.3752  -26.4710   16.3443 C.3       9 UNK         0.0343 
     41 CB        -48.3378  -27.9012   15.7749 C.3       9 UNK        -0.2003 
     42 N         -48.0581  -25.5307   15.2646 N.am      9 UNK        -0.4272 
     43 C         -47.0630  -24.6348   15.3020 C.2       9 UNK         0.4988 
     44 O         -46.2899  -24.5024   16.2516 O.2       9 UNK        -0.5108 
     45 CA        -46.8904  -23.7307   14.0714 C.3       8 UNK         0.0248 
     46 CB        -46.0370  -24.4319   13.0016 C.3       8 UNK        -0.2001 
     47 N         -48.1529  -23.2879   13.4748 N.am      8 UNK        -0.4140 
     48 C         -49.0100  -22.4282   14.0449 C.2       8 UNK         0.5028 
     49 O         -48.8808  -21.9883   15.1872 O.2       8 UNK        -0.5428 
     50 CA        -50.2109  -21.9771   13.2024 C.3       7 UNK         0.0264 
     51 CB        -49.7766  -20.9336   12.1595 C.3       7 UNK        -0.1988 
     52 N         -50.8268  -23.1115   12.5174 N.am      7 UNK        -0.4454 
     53 C         -52.0317  -23.6225   12.8061 C.2       7 UNK         0.5027 
     54 O         -52.7855  -23.1538   13.6597 O.2       7 UNK        -0.5083 
     55 CA        -52.4822  -24.8765   12.0220 C.3       6 UNK         0.0844 
     56 C56       -53.4039  -24.4893   10.8372 C.3       14 UNK        -0.0967 
     57 S57       -52.4774  -23.8076    9.4093 S.3       14 UNK        -0.2604 
     58 C58       -53.4376  -24.3879    7.9744 C.3       14 UNK         0.0134 
     59 N         -51.3756  -25.7300   11.5804 N.am      6 UNK        -0.4116 
     60 C         -50.4351  -26.2816   12.3541 C.2       5 UNK         0.5034 
     61 O         -50.4261  -26.2130   13.5830 O.2       5 UNK        -0.5045 
     62 CA        -49.2707  -26.9763   11.6316 C.3       5 UNK         0.0224 
     63 CB        -49.5708  -28.4727   11.4591 C.3       5 UNK        -0.1978 
     64 N         -48.9190  -26.3968   10.3279 N.am      5 UNK        -0.4737 
     65 C         -48.6160  -25.1143   10.0818 C.2       4 UNK         0.5027 
     66 O         -48.6962  -24.2133   10.9193 O.2       4 UNK        -0.5211 
     67 CA        -48.1503  -24.7914    8.6516 C.3       4 UNK         0.0297 
     68 CB        -48.6300  -23.3963    8.2134 C.3       4 UNK        -0.1993 
     69 N         -46.7033  -24.8821    8.4071 N.am      4 UNK        -0.4486 
     70 C         -45.7610  -25.6388    8.9946 C.2       3 UNK         0.4961 
     71 O         -45.9128  -26.3252   10.0047 O.2       3 UNK        -0.5105 
     72 CA        -44.4083  -25.6693    8.2624 C.3       3 UNK         0.0299 
     73 CB        -43.3347  -26.4753    9.0184 C.3       3 UNK        -0.1972 
     74 N         -44.5971  -26.2567    6.9349 N.am      3 UNK        -0.4305 
     75 C         -44.8992  -25.5693    5.8261 C.2       2 UNK         0.5006 
     76 O         -44.9747  -24.3409    5.7813 O.2       2 UNK        -0.5106 
     77 CA        -45.2255  -26.4008    4.5758 C.3       2 UNK         0.0296 
     78 CB        -43.9589  -27.0537    3.9965 C.3       2 UNK        -0.2002 
     79 N         -46.2399  -27.4262    4.8431 N.am      2 UNK        -0.4032 
     80 C         -47.5322  -27.1675    5.1024 C.2       1 UNK         0.5000 
     81 O         -48.0035  -26.0283    5.1288 O.2       1 UNK        -0.5238 
     82 H82       -46.5397  -30.9424    7.8374 H         1 UNK         0.0889 
     83 H83       -47.6352  -30.6003    9.1800 H         1 UNK         0.0889 
     84 H84       -46.1203  -29.7068    9.0269 H         1 UNK         0.0889 
     85 H85       -47.4903  -30.1809    5.9588 H         1 UNK         0.3028 
     86 H86       -48.4687  -28.9418    4.4295 H         1 UNK         0.0864 
     87 H87       -49.9252  -27.2985    6.5452 H         1 UNK         0.0720 
     88 H88       -50.3364  -27.4338    4.8627 H         1 UNK         0.0720 
     89 H89       -50.6643  -28.6789    8.3254 H         1 UNK         0.0814 
     90 H90       -51.7509  -30.0336    8.2289 H         1 UNK         0.0814 
     91 H91       -51.5202  -26.3366    7.8489 H         1 UNK         0.1469 
     92 H92       -55.7678  -25.7874    8.0261 H         1 UNK         0.1381 
     93 H93       -54.1349  -29.7417    7.8189 H         1 UNK         0.1206 
     94 H94       -57.1670  -27.7801    7.3455 H         1 UNK         0.0813 
     95 H95       -56.5338  -29.3951    7.5220 H         1 UNK         0.0813 
     96 H96       -55.1519  -29.4161   10.5459 H         1 UNK         0.0638 
     97 H97       -56.0813  -30.5836    9.6319 H         1 UNK         0.0638 
     98 H98       -57.8134  -30.6153   11.4895 H         1 UNK         0.0568 
     99 H99       -57.2467  -32.8402   11.0514 H         1 UNK         0.3450 
    100 H100      -55.9695  -33.6271   11.9409 H         1 UNK         0.3450 
    101 H101      -56.1498  -28.5343   12.6149 H         1 UNK         0.2987 
    102 H102      -57.3360  -27.3425   14.4568 H         1 UNK         0.0766 
    103 H103      -57.8001  -27.5843   16.8849 H         1 UNK         0.0798 
    104 H104      -57.8444  -29.3403   16.7292 H         1 UNK         0.0798 
    105 H105      -59.0638  -28.3509   15.9379 H         1 UNK         0.0798 
    106 H106      -55.5042  -28.8731   16.1657 H         1 UNK         0.3198 
    107 H107      -53.3489  -28.7286   16.0421 H         1 UNK         0.0843 
    108 H108      -52.9656  -29.8850   13.8832 H         1 UNK         0.0831 
    109 H109      -51.4749  -29.1443   14.4462 H         1 UNK         0.0831 
    110 H110      -52.4030  -28.3954   13.1454 H         1 UNK         0.0831 
    111 H111      -51.7894  -26.6499   14.8509 H         1 UNK         0.3133 
    112 H112      -52.1971  -24.1376   16.0119 H         1 UNK         0.0566 
    113 H113      -51.3545  -23.4417   18.2636 H         1 UNK         0.0814 
    114 H114      -53.0426  -23.9207   18.3107 H         1 UNK         0.0814 
    115 H115      -51.8102  -25.0138   18.9199 H         1 UNK         0.0814 
    116 H116      -50.1147  -24.7546   15.6208 H         1 UNK         0.3091 
    117 H117      -47.6330  -26.4063   17.1424 H         1 UNK         0.0702 
    118 H118      -47.3646  -28.1284   15.3397 H         1 UNK         0.0785 
    119 H119      -49.0932  -28.0518   15.0034 H         1 UNK         0.0785 
    120 H120      -48.5216  -28.6389   16.5571 H         1 UNK         0.0785 
    121 H121      -48.6542  -25.5793   14.4467 H         1 UNK         0.2998 
    122 H122      -46.3516  -22.8379   14.3961 H         1 UNK         0.0697 
    123 H123      -46.5221  -25.3301   12.6187 H         1 UNK         0.0825 
    124 H124      -45.0697  -24.7321   13.4063 H         1 UNK         0.0825 
    125 H125      -45.8433  -23.7751   12.1532 H         1 UNK         0.0825 
    126 H126      -48.3304  -23.5947   12.5182 H         1 UNK         0.3029 
    127 H127      -50.9261  -21.5012   13.8770 H         1 UNK         0.0897 
    128 H128      -50.6331  -20.5580   11.5993 H         1 UNK         0.0792 
    129 H129      -49.3006  -20.0767   12.6380 H         1 UNK         0.0792 
    130 H130      -49.0656  -21.3463   11.4422 H         1 UNK         0.0792 
    131 H131      -50.2622  -23.5654   11.8038 H         1 UNK         0.3086 
    132 H132      -53.0709  -25.4724   12.7206 H         1 UNK         0.0583 
    133 H133      -54.1666  -23.7713   11.1456 H         1 UNK         0.1020 
    134 H134      -53.9570  -25.3766   10.5280 H         1 UNK         0.1020 
    135 H135      -54.4029  -23.8794    7.9766 H         1 UNK         0.0694 
    136 H136      -52.9287  -24.0728    7.0625 H         1 UNK         0.0694 
    137 H137      -51.2726  -25.8181   10.5803 H         1 UNK         0.2989 
    138 H138      -48.3905  -26.8780   12.2692 H         1 UNK         0.1055 
    139 H139      -49.7718  -28.9451   12.4216 H         1 UNK         0.0806 
    140 H140      -48.7248  -28.9967   11.0139 H         1 UNK         0.0806 
    141 H141      -50.4416  -28.6398   10.8242 H         1 UNK         0.0806 
    142 H142      -48.7122  -27.0606    9.5803 H         1 UNK         0.3061 
    143 H143      -48.6234  -25.5131    7.9842 H         1 UNK         0.0734 
    144 H144      -49.7026  -23.2817    8.3718 H         1 UNK         0.0832 
    145 H145      -48.1323  -22.6051    8.7755 H         1 UNK         0.0832 
    146 H146      -48.4428  -23.2263    7.1530 H         1 UNK         0.0832 
    147 H147      -46.3960  -24.3967    7.5737 H         1 UNK         0.3156 
    148 H148      -44.0516  -24.6409    8.1737 H         1 UNK         0.0589 
    149 H149      -43.6253  -27.5187    9.1479 H         1 UNK         0.0808 
    150 H150      -42.3807  -26.4560    8.4912 H         1 UNK         0.0808 
    151 H151      -43.1636  -26.0588   10.0120 H         1 UNK         0.0808 
    152 H152      -44.6040  -27.2650    6.8901 H         1 UNK         0.3098 
    153 H153      -45.6257  -25.7195    3.8215 H         1 UNK         0.0720 
    154 H154      -44.1716  -27.5633    3.0565 H         1 UNK         0.0791 
    155 H155      -43.5225  -27.7824    4.6808 H         1 UNK         0.0791 
    156 H156      -43.1945  -26.3033    3.7892 H         1 UNK         0.0791 
    157 H157      -45.9326  -28.3879    4.8368 H         1 UNK         0.3028 
@<TRIPOS>BOND
     1    1    2 1    
     2    1   82 1    
     3    1   83 1    
     4    1   84 1    
     5    2    3 2    
     6    2    4 am   BACKBONE|DICT|INTERRES
     7    4    5 1    
     8    4   85 1    
     9    5    6 1    
    10    5   80 1    
    11    5   86 1    
    12    6    7 1    
    13    6   87 1    
    14    6   88 1    
    15    7    8 1    
    16    8    9 1    
    17    8   89 1    
    18    8   90 1    
    19    9   10 ar   
    20    9   14 ar   
    21   10   11 ar   
    22   10   91 1    
    23   11   12 ar   
    24   11   58 1    
    25   12   13 ar   
    26   12   92 1    
    27   13   14 ar   
    28   13   15 1    
    29   14   93 1    
    30   15   16 1    
    31   15   94 1    
    32   15   95 1    
    33   16   17 1    
    34   17   18 1    
    35   17   96 1    
    36   17   97 1    
    37   18   19 1    
    38   18   22 1    
    39   18   98 1    
    40   19   20 am   BACKBONE|DICT|INTERRES
    41   19   21 2    
    42   20   99 1    
    43   20  100 1    
    44   22   23 am   BACKBONE|DICT|INTERRES
    45   22  101 1    
    46   23   24 2    
    47   23   25 1    
    48   25   26 1    
    49   25   27 1    
    50   25  102 1    
    51   26  103 1    
    52   26  104 1    
    53   26  105 1    
    54   27   28 am   BACKBONE|DICT|INTERRES
    55   27  106 1    
    56   28   29 2    
    57   28   30 1    
    58   30   31 1    
    59   30   32 1    
    60   30  107 1    
    61   31  108 1    
    62   31  109 1    
    63   31  110 1    
    64   32   33 am   BACKBONE|DICT|INTERRES
    65   32  111 1    
    66   33   34 2    
    67   33   35 1    
    68   35   36 1    
    69   35   37 1    
    70   35  112 1    
    71   36  113 1    
    72   36  114 1    
    73   36  115 1    
    74   37   38 am   BACKBONE|DICT|INTERRES
    75   37  116 1    
    76   38   39 2    
    77   38   40 1    
    78   40   41 1    
    79   40   42 1    
    80   40  117 1    
    81   41  118 1    
    82   41  119 1    
    83   41  120 1    
    84   42   43 am   BACKBONE|DICT|INTERRES
    85   42  121 1    
    86   43   44 2    
    87   43   45 1    
    88   45   46 1    
    89   45   47 1    
    90   45  122 1    
    91   46  123 1    
    92   46  124 1    
    93   46  125 1    
    94   47   48 am   BACKBONE|DICT|INTERRES
    95   47  126 1    
    96   48   49 2    
    97   48   50 1    
    98   50   51 1    
    99   50   52 1    
   100   50  127 1    
   101   51  128 1    
   102   51  129 1    
   103   51  130 1    
   104   52   53 am   BACKBONE|DICT|INTERRES
   105   52  131 1    
   106   53   54 2    
   107   53   55 1    
   108   55   56 1    
   109   55   59 1    
   110   55  132 1    
   111   56   57 1    
   112   56  133 1    
   113   56  134 1    
   114   57   58 1    
   115   58  135 1    
   116   58  136 1    
   117   59   60 am   BACKBONE|DICT|INTERRES
   118   59  137 1    
   119   60   61 2    
   120   60   62 1    
   121   62   63 1    
   122   62   64 1    
   123   62  138 1    
   124   63  139 1    
   125   63  140 1    
   126   63  141 1    
   127   64   65 am   BACKBONE|DICT|INTERRES
   128   64  142 1    
   129   65   66 2    
   130   65   67 1    
   131   67   68 1    
   132   67   69 1    
   133   67  143 1    
   134   68  144 1    
   135   68  145 1    
   136   68  146 1    
   137   69   70 am   BACKBONE|DICT|INTERRES
   138   69  147 1    
   139   70   71 2    
   140   70   72 1    
   141   72   73 1    
   142   72   74 1    
   143   72  148 1    
   144   73  149 1    
   145   73  150 1    
   146   73  151 1    
   147   74   75 am   BACKBONE|DICT|INTERRES
   148   74  152 1    
   149   75   76 2    
   150   75   77 1    
   151   77   78 1    
   152   77   79 1    
   153   77  153 1    
   154   78  154 1    
   155   78  155 1    
   156   78  156 1    
   157   79   80 am   BACKBONE|DICT|INTERRES
   158   79  157 1    
   159   80   81 2    
@<TRIPOS>SUBSTRUCTURE
     1 UNK         1 GROUP             0       ****    0 ROOT    
