@<TRIPOS>MOLECULE
3R207
157   159    1
SMALL
USER_CHARGES


@<TRIPOS>ATOM
      1 CA        -46.2340  -27.4710   11.1275 C.3       0 UNK        -0.1975 
      2 C         -46.6724  -27.7912    9.7088 C.2       0 UNK         0.4852 
      3 O         -45.9633  -28.5015    8.9944 O.2       0 UNK        -0.5216 
      4 N         -47.8377  -27.2783    9.2916 N.am      1 UNK        -0.4461 
      5 CA        -48.4016  -27.5083    7.9599 C.3       1 UNK         0.0864 
      6 C6        -49.8806  -27.0717    7.8859 C.3       14 UNK        -0.0898 
      7 S7        -50.7542  -27.8753    6.4987 S.3       14 UNK        -0.2598 
      8 C8        -51.7842  -29.1106    7.3639 C.3       14 UNK         0.0286 
      9 C9        -52.7383  -28.4940    8.3818 C.ar      14 UNK        -0.0844 
     10 C10       -53.4642  -27.3392    8.0760 C.ar      14 UNK        -0.0881 
     11 C11       -54.2927  -26.7446    9.0290 C.ar      14 UNK        -0.0643 
     12 C12       -54.4411  -27.3435   10.2835 C.ar      14 UNK        -0.0930 
     13 C13       -53.7401  -28.5130   10.5947 C.ar      14 UNK        -0.0827 
     14 C14       -52.8815  -29.0749    9.6448 C.ar      14 UNK        -0.1249 
     15 C15       -53.8847  -29.1565   11.9659 C.3       14 UNK         0.0141 
     16 S16       -54.6081  -30.8260   11.8838 S.3       14 UNK        -0.2313 
     17 C17       -56.3171  -30.4765   11.3418 C.3       14 UNK        -0.0915 
     18 CA        -57.3737  -30.6288   12.4666 C.3       13 UNK         0.0968 
     19 C         -57.6094  -32.1133   12.8752 C.2       13 UNK         0.5732 
     20 N         -57.4022  -32.5020   14.1281 N.am      13 UNK        -0.7310 
     21 O         -58.0061  -32.9242   12.0412 O.2       13 UNK        -0.5035 
     22 N         -57.1036  -29.7081   13.5811 N.am      13 UNK        -0.4233 
     23 C         -58.0303  -29.2257   14.4159 C.2       13 UNK         0.4989 
     24 O         -59.2266  -29.5123   14.3515 O.2       13 UNK        -0.4996 
     25 CA        -57.5543  -28.2591   15.5156 C.3       12 UNK         0.0216 
     26 CB        -57.3571  -29.0158   16.8395 C.3       12 UNK        -0.1964 
     27 N         -56.3312  -27.5041   15.2151 N.am      12 UNK        -0.4276 
     28 C         -56.1482  -26.6488   14.2028 C.2       12 UNK         0.5020 
     29 O         -56.9673  -26.4843   13.2988 O.2       12 UNK        -0.5489 
     30 CA        -54.8530  -25.8088   14.1760 C.3       11 UNK         0.0294 
     31 CB        -55.1399  -24.3856   14.6906 C.3       11 UNK        -0.2019 
     32 N         -53.6490  -26.3520   14.8326 N.am      11 UNK        -0.4493 
     33 C         -53.4515  -26.6987   16.1141 C.2       11 UNK         0.4932 
     34 O         -54.3539  -26.7459   16.9503 O.2       11 UNK        -0.5029 
     35 CA        -52.0116  -27.0040   16.5708 C.3       10 UNK         0.0280 
     36 CB        -51.9414  -28.1968   17.5491 C.3       10 UNK        -0.1976 
     37 N         -51.0243  -27.1181   15.4890 N.am      10 UNK        -0.4242 
     38 C         -50.8371  -28.1333   14.6290 C.2       10 UNK         0.5072 
     39 O         -51.5258  -29.1532   14.6233 O.2       10 UNK        -0.5224 
     40 CA        -49.6880  -28.0026   13.6024 C.3       9 UNK         0.0343 
     41 CB        -50.1491  -28.3574   12.1767 C.3       9 UNK        -0.2003 
     42 N         -49.1005  -26.6613   13.5861 N.am      9 UNK        -0.4272 
     43 C         -48.0535  -26.2613   14.3221 C.2       9 UNK         0.4988 
     44 O         -47.3800  -27.0167   15.0221 O.2       9 UNK        -0.5108 
     45 CA        -47.7216  -24.7561   14.3077 C.3       8 UNK         0.0248 
     46 CB        -46.5711  -24.4463   13.3397 C.3       8 UNK        -0.2001 
     47 N         -48.8726  -23.9150   13.9689 N.am      8 UNK        -0.4140 
     48 C         -49.9432  -23.7458   14.7561 C.2       8 UNK         0.5028 
     49 O         -50.0560  -24.2483   15.8738 O.2       8 UNK        -0.5428 
     50 CA        -51.1110  -22.9392   14.1689 C.3       7 UNK         0.0264 
     51 CB        -50.8989  -21.4340   14.3942 C.3       7 UNK        -0.1988 
     52 N         -51.3410  -23.1953   12.7423 N.am      7 UNK        -0.4454 
     53 C         -51.6790  -24.3848   12.2191 C.2       7 UNK         0.5027 
     54 O         -51.7941  -25.4143   12.8820 O.2       7 UNK        -0.5083 
     55 CA        -51.9138  -24.4342   10.6972 C.3       6 UNK         0.0844 
     56 C56       -53.3390  -23.9025   10.3924 C.3       14 UNK        -0.0967 
     57 S57       -53.8120  -24.0518    8.6380 S.3       14 UNK        -0.2604 
     58 C58       -54.9956  -25.4380    8.6986 C.3       14 UNK         0.0134 
     59 N         -50.8724  -23.7155    9.9506 N.am      6 UNK        -0.4116 
     60 C         -49.5521  -23.9488   10.0092 C.2       5 UNK         0.5034 
     61 O         -49.0336  -24.8596   10.6662 O.2       5 UNK        -0.5045 
     62 CA        -48.6629  -22.9675    9.2312 C.3       5 UNK         0.0224 
     63 CB        -48.8313  -21.5258    9.7577 C.3       5 UNK        -0.1978 
     64 N         -47.2638  -23.3722    9.3519 N.am      5 UNK        -0.4737 
     65 C         -46.2686  -22.9977    8.5388 C.2       4 UNK         0.5027 
     66 O         -46.4199  -22.2627    7.5622 O.2       4 UNK        -0.5211 
     67 CA        -44.8626  -23.5141    8.8709 C.3       4 UNK         0.0297 
     68 CB        -44.6357  -23.7774   10.3757 C.3       4 UNK        -0.1993 
     69 N         -44.5794  -24.7169    8.0891 N.am      4 UNK        -0.4486 
     70 C         -43.3437  -25.1683    7.8250 C.2       3 UNK         0.4961 
     71 O         -42.3212  -24.5792    8.1791 O.2       3 UNK        -0.5105 
     72 CA        -43.1866  -26.5020    7.0687 C.3       3 UNK         0.0299 
     73 CB        -42.6722  -27.5963    8.0193 C.3       3 UNK        -0.1972 
     74 N         -44.4191  -26.9672    6.4338 N.am      3 UNK        -0.4305 
     75 C         -44.8816  -26.5234    5.2557 C.2       2 UNK         0.5006 
     76 O         -44.2808  -25.7141    4.5480 O.2       2 UNK        -0.5106 
     77 CA        -46.2508  -27.0557    4.7841 C.3       2 UNK         0.0296 
     78 CB        -46.0635  -28.1717    3.7433 C.3       2 UNK        -0.2002 
     79 N         -47.1195  -27.5438    5.8621 N.am      2 UNK        -0.4032 
     80 C         -47.5446  -26.8022    6.8941 C.2       1 UNK         0.5000 
     81 O         -47.2524  -25.6154    7.0462 O.2       1 UNK        -0.5238 
     82 H82       -46.9253  -26.7833   11.6088 H         1 UNK         0.0889 
     83 H83       -45.2403  -27.0250   11.1274 H         1 UNK         0.0889 
     84 H84       -46.1980  -28.3831   11.7224 H         1 UNK         0.0889 
     85 H85       -48.3469  -26.6290    9.8822 H         1 UNK         0.3028 
     86 H86       -48.3578  -28.5865    7.7881 H         1 UNK         0.0864 
     87 H87       -50.3857  -27.3187    8.8205 H         1 UNK         0.0720 
     88 H88       -49.9750  -25.9891    7.7827 H         1 UNK         0.0720 
     89 H89       -51.1244  -29.8346    7.8448 H         1 UNK         0.0814 
     90 H90       -52.3672  -29.6636    6.6267 H         1 UNK         0.0814 
     91 H91       -53.3548  -26.8740    7.1060 H         1 UNK         0.1469 
     92 H92       -55.0944  -26.8939   11.0183 H         1 UNK         0.1381 
     93 H93       -52.3272  -29.9695    9.8940 H         1 UNK         0.1206 
     94 H94       -54.4791  -28.5330   12.6325 H         1 UNK         0.0813 
     95 H95       -52.9001  -29.2332   12.4220 H         1 UNK         0.0813 
     96 H96       -56.5499  -31.1362   10.5041 H         1 UNK         0.0638 
     97 H97       -56.3689  -29.4668   10.9331 H         1 UNK         0.0638 
     98 H98       -58.3226  -30.3154   12.0269 H         1 UNK         0.0568 
     99 H99       -57.5655  -33.4641   14.3791 H         1 UNK         0.3450 
    100 H100      -57.0784  -31.8465   14.8197 H         1 UNK         0.3450 
    101 H101      -56.1400  -29.4483   13.7210 H         1 UNK         0.2987 
    102 H102      -58.3519  -27.5273   15.6584 H         1 UNK         0.0766 
    103 H103      -58.2559  -29.5703   17.1137 H         1 UNK         0.0798 
    104 H104      -57.1399  -28.3303   17.6592 H         1 UNK         0.0798 
    105 H105      -56.5366  -29.7318   16.7766 H         1 UNK         0.0798 
    106 H106      -55.6178  -27.4818   15.9427 H         1 UNK         0.3198 
    107 H107      -54.5837  -25.7223   13.1229 H         1 UNK         0.0843 
    108 H108      -55.3589  -24.3775   15.7589 H         1 UNK         0.0831 
    109 H109      -55.9994  -23.9484   14.1801 H         1 UNK         0.0831 
    110 H110      -54.2948  -23.7220   14.5148 H         1 UNK         0.0831 
    111 H111      -52.8236  -26.3298   14.2381 H         1 UNK         0.3133 
    112 H112      -51.7036  -26.1216   17.1331 H         1 UNK         0.0566 
    113 H113      -52.3348  -29.1118   17.1057 H         1 UNK         0.0814 
    114 H114      -52.5271  -27.9997   18.4478 H         1 UNK         0.0814 
    115 H115      -50.9176  -28.3897   17.8691 H         1 UNK         0.0814 
    116 H116      -50.4247  -26.3062   15.3942 H         1 UNK         0.3091 
    117 H117      -48.9250  -28.7279   13.8919 H         1 UNK         0.0702 
    118 H118      -49.3256  -28.2919   11.4678 H         1 UNK         0.0785 
    119 H119      -50.9434  -27.6975   11.8272 H         1 UNK         0.0785 
    120 H120      -50.5258  -29.3796   12.1288 H         1 UNK         0.0785 
    121 H121      -49.6107  -25.9692   13.0517 H         1 UNK         0.2998 
    122 H122      -47.3942  -24.4919   15.3157 H         1 UNK         0.0697 
    123 H123      -46.8836  -24.5617   12.3038 H         1 UNK         0.0825 
    124 H124      -45.7210  -25.1093   13.5079 H         1 UNK         0.0825 
    125 H125      -46.2134  -23.4244   13.4669 H         1 UNK         0.0825 
    126 H126      -48.8761  -23.4909   13.0529 H         1 UNK         0.3029 
    127 H127      -52.0098  -23.2407   14.7097 H         1 UNK         0.0897 
    128 H128      -50.0305  -21.0597   13.8504 H         1 UNK         0.0792 
    129 H129      -50.7395  -21.2168   15.4516 H         1 UNK         0.0792 
    130 H130      -51.7687  -20.8587   14.0764 H         1 UNK         0.0792 
    131 H131      -51.2700  -22.4008   12.1234 H         1 UNK         0.3086 
    132 H132      -51.8626  -25.4827   10.3951 H         1 UNK         0.0583 
    133 H133      -54.0815  -24.4231   11.0004 H         1 UNK         0.1020 
    134 H134      -53.4241  -22.8492   10.6674 H         1 UNK         0.1020 
    135 H135      -55.7837  -25.2203    9.4212 H         1 UNK         0.0694 
    136 H136      -55.4857  -25.5277    7.7281 H         1 UNK         0.0694 
    137 H137      -51.2053  -22.9714    9.3549 H         1 UNK         0.2989 
    138 H138      -48.9531  -23.0172    8.1791 H         1 UNK         0.1055 
    139 H139      -48.2007  -20.8255    9.2096 H         1 UNK         0.0806 
    140 H140      -48.5677  -21.4500   10.8134 H         1 UNK         0.0806 
    141 H141      -49.8568  -21.1719    9.6483 H         1 UNK         0.0806 
    142 H142      -47.0870  -24.0402   10.0893 H         1 UNK         0.3061 
    143 H143      -44.1723  -22.7259    8.5620 H         1 UNK         0.0734 
    144 H144      -45.1562  -24.6715   10.7126 H         1 UNK         0.0832 
    145 H145      -43.5770  -23.9161   10.5949 H         1 UNK         0.0832 
    146 H146      -44.9762  -22.9370   10.9824 H         1 UNK         0.0832 
    147 H147      -45.3916  -25.1894    7.6991 H         1 UNK         0.3156 
    148 H148      -42.4307  -26.3502    6.2952 H         1 UNK         0.0589 
    149 H149      -43.3644  -27.7755    8.8426 H         1 UNK         0.0808 
    150 H150      -41.7142  -27.3135    8.4578 H         1 UNK         0.0808 
    151 H151      -42.5205  -28.5403    7.4956 H         1 UNK         0.0808 
    152 H152      -44.9770  -27.6270    6.9611 H         1 UNK         0.3098 
    153 H153      -46.7682  -26.2231    4.3028 H         1 UNK         0.0720 
    154 H154      -45.4462  -27.8302    2.9110 H         1 UNK         0.0791 
    155 H155      -47.0186  -28.4900    3.3248 H         1 UNK         0.0791 
    156 H156      -45.5747  -29.0469    4.1733 H         1 UNK         0.0791 
    157 H157      -47.3989  -28.5133    5.8118 H         1 UNK         0.3028 
@<TRIPOS>BOND
     1    1    2 1    
     2    1   82 1    
     3    1   83 1    
     4    1   84 1    
     5    2    3 2    
     6    2    4 am   BACKBONE|DICT|INTERRES
     7    4    5 1    
     8    4   85 1    
     9    5    6 1    
    10    5   80 1    
    11    5   86 1    
    12    6    7 1    
    13    6   87 1    
    14    6   88 1    
    15    7    8 1    
    16    8    9 1    
    17    8   89 1    
    18    8   90 1    
    19    9   10 ar   
    20    9   14 ar   
    21   10   11 ar   
    22   10   91 1    
    23   11   12 ar   
    24   11   58 1    
    25   12   13 ar   
    26   12   92 1    
    27   13   14 ar   
    28   13   15 1    
    29   14   93 1    
    30   15   16 1    
    31   15   94 1    
    32   15   95 1    
    33   16   17 1    
    34   17   18 1    
    35   17   96 1    
    36   17   97 1    
    37   18   19 1    
    38   18   22 1    
    39   18   98 1    
    40   19   20 am   BACKBONE|DICT|INTERRES
    41   19   21 2    
    42   20   99 1    
    43   20  100 1    
    44   22   23 am   BACKBONE|DICT|INTERRES
    45   22  101 1    
    46   23   24 2    
    47   23   25 1    
    48   25   26 1    
    49   25   27 1    
    50   25  102 1    
    51   26  103 1    
    52   26  104 1    
    53   26  105 1    
    54   27   28 am   BACKBONE|DICT|INTERRES
    55   27  106 1    
    56   28   29 2    
    57   28   30 1    
    58   30   31 1    
    59   30   32 1    
    60   30  107 1    
    61   31  108 1    
    62   31  109 1    
    63   31  110 1    
    64   32   33 am   BACKBONE|DICT|INTERRES
    65   32  111 1    
    66   33   34 2    
    67   33   35 1    
    68   35   36 1    
    69   35   37 1    
    70   35  112 1    
    71   36  113 1    
    72   36  114 1    
    73   36  115 1    
    74   37   38 am   BACKBONE|DICT|INTERRES
    75   37  116 1    
    76   38   39 2    
    77   38   40 1    
    78   40   41 1    
    79   40   42 1    
    80   40  117 1    
    81   41  118 1    
    82   41  119 1    
    83   41  120 1    
    84   42   43 am   BACKBONE|DICT|INTERRES
    85   42  121 1    
    86   43   44 2    
    87   43   45 1    
    88   45   46 1    
    89   45   47 1    
    90   45  122 1    
    91   46  123 1    
    92   46  124 1    
    93   46  125 1    
    94   47   48 am   BACKBONE|DICT|INTERRES
    95   47  126 1    
    96   48   49 2    
    97   48   50 1    
    98   50   51 1    
    99   50   52 1    
   100   50  127 1    
   101   51  128 1    
   102   51  129 1    
   103   51  130 1    
   104   52   53 am   BACKBONE|DICT|INTERRES
   105   52  131 1    
   106   53   54 2    
   107   53   55 1    
   108   55   56 1    
   109   55   59 1    
   110   55  132 1    
   111   56   57 1    
   112   56  133 1    
   113   56  134 1    
   114   57   58 1    
   115   58  135 1    
   116   58  136 1    
   117   59   60 am   BACKBONE|DICT|INTERRES
   118   59  137 1    
   119   60   61 2    
   120   60   62 1    
   121   62   63 1    
   122   62   64 1    
   123   62  138 1    
   124   63  139 1    
   125   63  140 1    
   126   63  141 1    
   127   64   65 am   BACKBONE|DICT|INTERRES
   128   64  142 1    
   129   65   66 2    
   130   65   67 1    
   131   67   68 1    
   132   67   69 1    
   133   67  143 1    
   134   68  144 1    
   135   68  145 1    
   136   68  146 1    
   137   69   70 am   BACKBONE|DICT|INTERRES
   138   69  147 1    
   139   70   71 2    
   140   70   72 1    
   141   72   73 1    
   142   72   74 1    
   143   72  148 1    
   144   73  149 1    
   145   73  150 1    
   146   73  151 1    
   147   74   75 am   BACKBONE|DICT|INTERRES
   148   74  152 1    
   149   75   76 2    
   150   75   77 1    
   151   77   78 1    
   152   77   79 1    
   153   77  153 1    
   154   78  154 1    
   155   78  155 1    
   156   78  156 1    
   157   79   80 am   BACKBONE|DICT|INTERRES
   158   79  157 1    
   159   80   81 2    
@<TRIPOS>SUBSTRUCTURE
     1 UNK         1 GROUP             0       ****    0 ROOT    
