@<TRIPOS>MOLECULE
3R207
157   159    1
SMALL
USER_CHARGES


@<TRIPOS>ATOM
      1 CA        -49.6658  -32.2552    5.5441 C.3       0 UNK        -0.1975 
      2 C         -50.1400  -30.8609    5.9268 C.2       0 UNK         0.4852 
      3 O         -50.7807  -30.1919    5.1157 O.2       0 UNK        -0.5216 
      4 N         -49.8338  -30.4280    7.1573 N.am      1 UNK        -0.4461 
      5 CA        -50.1867  -29.1173    7.7166 C.3       1 UNK         0.0864 
      6 C6        -49.8526  -29.0373    9.2278 C.3       14 UNK        -0.0898 
      7 S7        -50.8390  -30.2041   10.2219 S.3       14 UNK        -0.2598 
      8 C8        -51.8179  -29.0667   11.2577 C.3       14 UNK         0.0286 
      9 C9        -52.6790  -28.1029   10.4523 C.ar      14 UNK        -0.0844 
     10 C10       -52.6709  -26.7434   10.7686 C.ar      14 UNK        -0.0881 
     11 C11       -53.4220  -25.8295   10.0226 C.ar      14 UNK        -0.0643 
     12 C12       -54.2281  -26.2978    8.9808 C.ar      14 UNK        -0.0930 
     13 C13       -54.2795  -27.6627    8.6828 C.ar      14 UNK        -0.0827 
     14 C14       -53.4919  -28.5578    9.4114 C.ar      14 UNK        -0.1249 
     15 C15       -55.2091  -28.1760    7.5950 C.3       14 UNK         0.0141 
     16 S16       -56.9154  -28.3499    8.2114 S.3       14 UNK        -0.2313 
     17 C17       -56.7235  -29.6407    9.4899 C.3       14 UNK        -0.0915 
     18 CA        -56.6009  -29.0594   10.9365 C.3       13 UNK         0.0968 
     19 C         -57.9695  -28.7625   11.6223 C.2       13 UNK         0.5732 
     20 N         -58.9690  -28.3178   10.8727 N.am      13 UNK        -0.7310 
     21 O         -58.1272  -28.8815   12.8357 O.2       13 UNK        -0.5035 
     22 N         -55.6799  -29.8419   11.7791 N.am      13 UNK        -0.4233 
     23 C         -55.8212  -31.1347   12.0991 C.2       13 UNK         0.4989 
     24 O         -56.7413  -31.8479   11.6951 O.2       13 UNK        -0.4996 
     25 CA        -54.7457  -31.7625   13.0055 C.3       12 UNK         0.0216 
     26 CB        -53.6642  -32.4547   12.1593 C.3       12 UNK        -0.1964 
     27 N         -54.1177  -30.8439   13.9662 N.am      12 UNK        -0.4276 
     28 C         -54.7495  -30.3134   15.0199 C.2       12 UNK         0.5020 
     29 O         -55.9647  -30.4088   15.1941 O.2       12 UNK        -0.5489 
     30 CA        -53.9145  -29.6196   16.1154 C.3       11 UNK         0.0294 
     31 CB        -53.5176  -30.6473   17.1931 C.3       11 UNK        -0.2019 
     32 N         -52.7361  -28.8304   15.7230 N.am      11 UNK        -0.4493 
     33 C         -51.6097  -29.1932   15.0979 C.2       11 UNK         0.4932 
     34 O         -51.4773  -30.2617   14.4998 O.2       11 UNK        -0.5029 
     35 CA        -50.4149  -28.2124   15.2057 C.3       10 UNK         0.0280 
     36 CB        -49.1854  -28.6796   14.4037 C.3       10 UNK        -0.1976 
     37 N         -50.7017  -26.8114   14.8641 N.am      10 UNK        -0.4242 
     38 C         -51.4639  -25.9580   15.5646 C.2       10 UNK         0.5072 
     39 O         -52.1059  -26.2811   16.5668 O.2       10 UNK        -0.5224 
     40 CA        -51.5008  -24.5020   15.0631 C.3       9 UNK         0.0343 
     41 CB        -52.3907  -23.5830   15.9257 C.3       9 UNK        -0.2003 
     42 N         -50.1609  -23.9268   14.9092 N.am      9 UNK        -0.4272 
     43 C         -49.2056  -23.7764   15.8404 C.2       9 UNK         0.4988 
     44 O         -49.3453  -24.0773   17.0264 O.2       9 UNK        -0.5108 
     45 CA        -47.8476  -23.2061   15.3785 C.3       8 UNK         0.0248 
     46 CB        -46.7828  -24.3152   15.3741 C.3       8 UNK        -0.2001 
     47 N         -47.8866  -22.5769   14.0537 N.am      8 UNK        -0.4140 
     48 C         -48.4567  -21.3929   13.7852 C.2       8 UNK         0.5028 
     49 O         -48.9238  -20.6464   14.6460 O.2       8 UNK        -0.5428 
     50 CA        -48.5723  -20.9986   12.3005 C.3       7 UNK         0.0264 
     51 CB        -47.2810  -20.3255   11.8094 C.3       7 UNK        -0.1988 
     52 N         -48.9064  -22.1360   11.4338 N.am      7 UNK        -0.4454 
     53 C         -50.0470  -22.8381   11.5180 C.2       7 UNK         0.5027 
     54 O         -50.9613  -22.5450   12.2880 O.2       7 UNK        -0.5083 
     55 CA        -50.1629  -24.1350   10.6936 C.3       6 UNK         0.0844 
     56 C56       -50.7255  -23.9334    9.2668 C.3       14 UNK        -0.0967 
     57 S57       -52.4582  -23.3479    9.1538 S.3       14 UNK        -0.2604 
     58 C58       -53.3999  -24.3448   10.3637 C.3       14 UNK         0.0134 
     59 N         -48.9123  -24.8899   10.6878 N.am      6 UNK        -0.4116 
     60 C         -48.4314  -25.5749   11.7326 C.2       5 UNK         0.5034 
     61 O         -49.0449  -25.7289   12.7884 O.2       5 UNK        -0.5045 
     62 CA        -47.0185  -26.1629   11.5904 C.3       5 UNK         0.0224 
     63 CB        -47.0647  -27.5936   11.0375 C.3       5 UNK        -0.1978 
     64 N         -46.1542  -25.3434   10.7383 N.am      5 UNK        -0.4737 
     65 C         -45.6578  -24.1510   11.0894 C.2       4 UNK         0.5027 
     66 O         -45.8509  -23.6304   12.1874 O.2       4 UNK        -0.5211 
     67 CA        -44.8444  -23.4017   10.0197 C.3       4 UNK         0.0297 
     68 CB        -43.3974  -23.9177    9.9811 C.3       4 UNK        -0.1993 
     69 N         -45.4382  -23.4941    8.6810 N.am      4 UNK        -0.4486 
     70 C         -46.6080  -22.9358    8.3398 C.2       3 UNK         0.4961 
     71 O         -47.3028  -22.2803    9.1143 O.2       3 UNK        -0.5105 
     72 CA        -47.1198  -23.1836    6.9095 C.3       3 UNK         0.0299 
     73 CB        -46.4429  -22.2191    5.9226 C.3       3 UNK        -0.1972 
     74 N         -46.9858  -24.5633    6.4221 N.am      3 UNK        -0.4305 
     75 C         -47.3994  -25.6643    7.0652 C.2       2 UNK         0.5006 
     76 O         -47.8156  -25.6642    8.2245 O.2       2 UNK        -0.5106 
     77 CA        -47.2991  -26.9925    6.2915 C.3       2 UNK         0.0296 
     78 CB        -45.8494  -27.5057    6.3026 C.3       2 UNK        -0.2002 
     79 N         -48.1692  -28.0352    6.8468 N.am      2 UNK        -0.4032 
     80 C         -49.5058  -27.9630    6.9537 C.2       1 UNK         0.5000 
     81 O         -50.1897  -27.0525    6.4813 O.2       1 UNK        -0.5238 
     82 H82       -49.1200  -32.7382    6.3545 H         1 UNK         0.0889 
     83 H83       -49.0082  -32.2027    4.6768 H         1 UNK         0.0889 
     84 H84       -50.5182  -32.8839    5.2882 H         1 UNK         0.0889 
     85 H85       -49.3372  -31.0444    7.7848 H         1 UNK         0.3028 
     86 H86       -51.2643  -28.9857    7.5963 H         1 UNK         0.0864 
     87 H87       -48.8031  -29.2786    9.3965 H         1 UNK         0.0720 
     88 H88       -49.9981  -28.0232    9.6068 H         1 UNK         0.0720 
     89 H89       -51.1321  -28.5155   11.9001 H         1 UNK         0.0814 
     90 H90       -52.4589  -29.6421   11.9224 H         1 UNK         0.0814 
     91 H91       -52.0808  -26.4086   11.6075 H         1 UNK         0.1469 
     92 H92       -54.8319  -25.6010    8.4157 H         1 UNK         0.1381 
     93 H93       -53.5209  -29.6134    9.1789 H         1 UNK         0.1206 
     94 H94       -55.2041  -27.4849    6.7509 H         1 UNK         0.0813 
     95 H95       -54.8598  -29.1342    7.2070 H         1 UNK         0.0813 
     96 H96       -57.5608  -30.3370    9.4177 H         1 UNK         0.0638 
     97 H97       -55.8441  -30.2336    9.2366 H         1 UNK         0.0638 
     98 H98       -56.1162  -28.0852   10.8707 H         1 UNK         0.0568 
     99 H99       -58.8406  -28.1925    9.8796 H         1 UNK         0.3450 
    100 H100      -59.8548  -28.1032   11.3027 H         1 UNK         0.3450 
    101 H101      -54.9158  -29.3274   12.1888 H         1 UNK         0.2987 
    102 H102      -55.2440  -32.5378   13.5918 H         1 UNK         0.0766 
    103 H103      -54.1008  -33.2469   11.5496 H         1 UNK         0.0798 
    104 H104      -52.8983  -32.9142   12.7845 H         1 UNK         0.0798 
    105 H105      -53.1726  -31.7637   11.4763 H         1 UNK         0.0798 
    106 H106      -53.1024  -30.7499   13.9473 H         1 UNK         0.3198 
    107 H107      -54.5860  -28.9005   16.5880 H         1 UNK         0.0843 
    108 H108      -52.8170  -31.3884   16.8064 H         1 UNK         0.0831 
    109 H109      -54.3909  -31.1876   17.5615 H         1 UNK         0.0831 
    110 H110      -53.0533  -30.1629   18.0522 H         1 UNK         0.0831 
    111 H111      -52.7046  -27.8963   16.1332 H         1 UNK         0.3133 
    112 H112      -50.1227  -28.2239   16.2577 H         1 UNK         0.0566 
    113 H113      -49.3828  -28.7004   13.3334 H         1 UNK         0.0814 
    114 H114      -48.8820  -29.6852   14.6979 H         1 UNK         0.0814 
    115 H115      -48.3298  -28.0250   14.5715 H         1 UNK         0.0814 
    116 H116      -50.1796  -26.4336   14.0750 H         1 UNK         0.3091 
    117 H117      -51.9361  -24.5349   14.0632 H         1 UNK         0.0702 
    118 H118      -52.4279  -22.5735   15.5159 H         1 UNK         0.0785 
    119 H119      -52.0301  -23.5154   16.9526 H         1 UNK         0.0785 
    120 H120      -53.4151  -23.9554   15.9642 H         1 UNK         0.0785 
    121 H121      -49.9307  -23.6445   13.9660 H         1 UNK         0.2998 
    122 H122      -47.5472  -22.4486   16.1053 H         1 UNK         0.0697 
    123 H123      -45.8075  -23.9313   15.0743 H         1 UNK         0.0825 
    124 H124      -47.0494  -25.1241   14.6941 H         1 UNK         0.0825 
    125 H125      -46.6685  -24.7512   16.3674 H         1 UNK         0.0825 
    126 H126      -47.4324  -23.0787   13.2960 H         1 UNK         0.3029 
    127 H127      -49.3845  -20.2731   12.2174 H         1 UNK         0.0897 
    128 H128      -47.0331  -19.4605   12.4260 H         1 UNK         0.0792 
    129 H129      -47.3840  -19.9730   10.7829 H         1 UNK         0.0792 
    130 H130      -46.4302  -21.0060   11.8446 H         1 UNK         0.0792 
    131 H131      -48.2238  -22.3809   10.7186 H         1 UNK         0.3086 
    132 H132      -50.8649  -24.7524   11.2396 H         1 UNK         0.0583 
    133 H133      -50.0914  -23.2446    8.7058 H         1 UNK         0.1020 
    134 H134      -50.6778  -24.8800    8.7240 H         1 UNK         0.1020 
    135 H135      -53.0231  -24.1742   11.3724 H         1 UNK         0.0694 
    136 H136      -54.4267  -23.9764   10.3760 H         1 UNK         0.0694 
    137 H137      -48.3828  -24.9065    9.8192 H         1 UNK         0.2989 
    138 H138      -46.5820  -26.2006   12.5904 H         1 UNK         0.1055 
    139 H139      -47.3673  -27.6049    9.9915 H         1 UNK         0.0806 
    140 H140      -47.7682  -28.2132   11.5944 H         1 UNK         0.0806 
    141 H141      -46.0881  -28.0730   11.1050 H         1 UNK         0.0806 
    142 H142      -46.0165  -25.6625    9.7895 H         1 UNK         0.3061 
    143 H143      -44.8204  -22.3474   10.3040 H         1 UNK         0.0734 
    144 H144      -43.3462  -24.9639    9.6768 H         1 UNK         0.0832 
    145 H145      -42.7867  -23.3359    9.2905 H         1 UNK         0.0832 
    146 H146      -42.9316  -23.8419   10.9648 H         1 UNK         0.0832 
    147 H147      -44.9362  -24.0257    7.9846 H         1 UNK         0.3156 
    148 H148      -48.1883  -22.9593    6.9131 H         1 UNK         0.0589 
    149 H149      -46.8951  -22.2804    4.9325 H         1 UNK         0.0808 
    150 H150      -45.3771  -22.4266    5.8190 H         1 UNK         0.0808 
    151 H151      -46.5424  -21.1850    6.2564 H         1 UNK         0.0808 
    152 H152      -46.6333  -24.6677    5.4813 H         1 UNK         0.3098 
    153 H153      -47.6093  -26.8141    5.2600 H         1 UNK         0.0720 
    154 H154      -45.1679  -26.7789    5.8586 H         1 UNK         0.0791 
    155 H155      -45.4992  -27.7028    7.3169 H         1 UNK         0.0791 
    156 H156      -45.7503  -28.4274    5.7287 H         1 UNK         0.0791 
    157 H157      -47.7049  -28.8306    7.2580 H         1 UNK         0.3028 
@<TRIPOS>BOND
     1    1    2 1    
     2    1   82 1    
     3    1   83 1    
     4    1   84 1    
     5    2    3 2    
     6    2    4 am   BACKBONE|DICT|INTERRES
     7    4    5 1    
     8    4   85 1    
     9    5    6 1    
    10    5   80 1    
    11    5   86 1    
    12    6    7 1    
    13    6   87 1    
    14    6   88 1    
    15    7    8 1    
    16    8    9 1    
    17    8   89 1    
    18    8   90 1    
    19    9   10 ar   
    20    9   14 ar   
    21   10   11 ar   
    22   10   91 1    
    23   11   12 ar   
    24   11   58 1    
    25   12   13 ar   
    26   12   92 1    
    27   13   14 ar   
    28   13   15 1    
    29   14   93 1    
    30   15   16 1    
    31   15   94 1    
    32   15   95 1    
    33   16   17 1    
    34   17   18 1    
    35   17   96 1    
    36   17   97 1    
    37   18   19 1    
    38   18   22 1    
    39   18   98 1    
    40   19   20 am   BACKBONE|DICT|INTERRES
    41   19   21 2    
    42   20   99 1    
    43   20  100 1    
    44   22   23 am   BACKBONE|DICT|INTERRES
    45   22  101 1    
    46   23   24 2    
    47   23   25 1    
    48   25   26 1    
    49   25   27 1    
    50   25  102 1    
    51   26  103 1    
    52   26  104 1    
    53   26  105 1    
    54   27   28 am   BACKBONE|DICT|INTERRES
    55   27  106 1    
    56   28   29 2    
    57   28   30 1    
    58   30   31 1    
    59   30   32 1    
    60   30  107 1    
    61   31  108 1    
    62   31  109 1    
    63   31  110 1    
    64   32   33 am   BACKBONE|DICT|INTERRES
    65   32  111 1    
    66   33   34 2    
    67   33   35 1    
    68   35   36 1    
    69   35   37 1    
    70   35  112 1    
    71   36  113 1    
    72   36  114 1    
    73   36  115 1    
    74   37   38 am   BACKBONE|DICT|INTERRES
    75   37  116 1    
    76   38   39 2    
    77   38   40 1    
    78   40   41 1    
    79   40   42 1    
    80   40  117 1    
    81   41  118 1    
    82   41  119 1    
    83   41  120 1    
    84   42   43 am   BACKBONE|DICT|INTERRES
    85   42  121 1    
    86   43   44 2    
    87   43   45 1    
    88   45   46 1    
    89   45   47 1    
    90   45  122 1    
    91   46  123 1    
    92   46  124 1    
    93   46  125 1    
    94   47   48 am   BACKBONE|DICT|INTERRES
    95   47  126 1    
    96   48   49 2    
    97   48   50 1    
    98   50   51 1    
    99   50   52 1    
   100   50  127 1    
   101   51  128 1    
   102   51  129 1    
   103   51  130 1    
   104   52   53 am   BACKBONE|DICT|INTERRES
   105   52  131 1    
   106   53   54 2    
   107   53   55 1    
   108   55   56 1    
   109   55   59 1    
   110   55  132 1    
   111   56   57 1    
   112   56  133 1    
   113   56  134 1    
   114   57   58 1    
   115   58  135 1    
   116   58  136 1    
   117   59   60 am   BACKBONE|DICT|INTERRES
   118   59  137 1    
   119   60   61 2    
   120   60   62 1    
   121   62   63 1    
   122   62   64 1    
   123   62  138 1    
   124   63  139 1    
   125   63  140 1    
   126   63  141 1    
   127   64   65 am   BACKBONE|DICT|INTERRES
   128   64  142 1    
   129   65   66 2    
   130   65   67 1    
   131   67   68 1    
   132   67   69 1    
   133   67  143 1    
   134   68  144 1    
   135   68  145 1    
   136   68  146 1    
   137   69   70 am   BACKBONE|DICT|INTERRES
   138   69  147 1    
   139   70   71 2    
   140   70   72 1    
   141   72   73 1    
   142   72   74 1    
   143   72  148 1    
   144   73  149 1    
   145   73  150 1    
   146   73  151 1    
   147   74   75 am   BACKBONE|DICT|INTERRES
   148   74  152 1    
   149   75   76 2    
   150   75   77 1    
   151   77   78 1    
   152   77   79 1    
   153   77  153 1    
   154   78  154 1    
   155   78  155 1    
   156   78  156 1    
   157   79   80 am   BACKBONE|DICT|INTERRES
   158   79  157 1    
   159   80   81 2    
@<TRIPOS>SUBSTRUCTURE
     1 UNK         1 GROUP             0       ****    0 ROOT    
