@<TRIPOS>MOLECULE
3R207
157   159    1
SMALL
USER_CHARGES


@<TRIPOS>ATOM
      1 CA        -51.9342  -30.6130    5.0339 C.3       0 UNK        -0.1975 
      2 C         -51.4030  -29.3495    4.3745 C.2       0 UNK         0.4852 
      3 O         -50.7423  -29.4290    3.3386 O.2       0 UNK        -0.5216 
      4 N         -51.6937  -28.1840    4.9679 N.am      1 UNK        -0.4461 
      5 CA        -51.3240  -26.8527    4.4672 C.3       1 UNK         0.0864 
      6 C6        -52.0267  -25.7044    5.2448 C.3       14 UNK        -0.0898 
      7 S7        -53.8145  -25.9563    5.5290 S.3       14 UNK        -0.2598 
      8 C8        -53.8924  -26.1267    7.3458 C.3       14 UNK         0.0286 
      9 C9        -53.4493  -27.5089    7.8055 C.ar      14 UNK        -0.0844 
     10 C10       -52.0998  -27.7790    8.0460 C.ar      14 UNK        -0.0881 
     11 C11       -51.6846  -29.0636    8.4094 C.ar      14 UNK        -0.0643 
     12 C12       -52.6386  -30.0682    8.5980 C.ar      14 UNK        -0.0930 
     13 C13       -53.9958  -29.8020    8.3902 C.ar      14 UNK        -0.0827 
     14 C14       -54.3923  -28.5246    7.9829 C.ar      14 UNK        -0.1249 
     15 C15       -55.0376  -30.8984    8.5560 C.3       14 UNK         0.0141 
     16 S16       -55.9906  -30.7084   10.0950 S.3       14 UNK        -0.2313 
     17 C17       -54.9188  -31.5589   11.3009 C.3       14 UNK        -0.0915 
     18 CA        -55.1173  -31.0200   12.7488 C.3       13 UNK         0.0968 
     19 C         -54.4859  -31.9449   13.8355 C.2       13 UNK         0.5732 
     20 N         -54.0060  -31.4174   14.9558 N.am      13 UNK        -0.7310 
     21 O         -54.4644  -33.1647   13.6854 O.2       13 UNK        -0.5035 
     22 N         -54.7753  -29.5921   12.8767 N.am      13 UNK        -0.4233 
     23 C         -53.5613  -29.0480   12.7366 C.2       13 UNK         0.4989 
     24 O         -52.5394  -29.6946   12.5130 O.2       13 UNK        -0.4996 
     25 CA        -53.4526  -27.5218   12.8992 C.3       12 UNK         0.0216 
     26 CB        -53.9476  -26.7865   11.6382 C.3       12 UNK        -0.1964 
     27 N         -54.0618  -26.9830   14.1231 N.am      12 UNK        -0.4276 
     28 C         -55.3512  -26.9515   14.4906 C.2       12 UNK         0.5020 
     29 O         -56.2720  -27.4163   13.8169 O.2       12 UNK        -0.5489 
     30 CA        -55.6699  -26.3225   15.8591 C.3       11 UNK         0.0294 
     31 CB        -55.9264  -27.4224   16.9021 C.3       11 UNK        -0.2019 
     32 N         -54.6150  -25.4335   16.3560 N.am      11 UNK        -0.4493 
     33 C         -54.3521  -24.2060   15.8919 C.2       11 UNK         0.4932 
     34 O         -54.9918  -23.6692   14.9877 O.2       11 UNK        -0.5029 
     35 CA        -53.1720  -23.4493   16.5291 C.3       10 UNK         0.0280 
     36 CB        -53.5751  -22.8187   17.8762 C.3       10 UNK        -0.1976 
     37 N         -51.9294  -24.2294   16.6429 N.am      10 UNK        -0.4242 
     38 C         -51.6704  -25.3065   17.4039 C.2       10 UNK         0.5072 
     39 O         -52.5036  -25.8244   18.1495 O.2       10 UNK        -0.5224 
     40 CA        -50.2742  -25.9522   17.3031 C.3       9 UNK         0.0343 
     41 CB        -50.3872  -27.4108   16.8248 C.3       9 UNK        -0.2003 
     42 N         -49.3689  -25.2245   16.4097 N.am      9 UNK        -0.4272 
     43 C         -48.5977  -24.1914   16.7840 C.2       9 UNK         0.4988 
     44 O         -48.5140  -23.7926   17.9460 O.2       9 UNK        -0.5108 
     45 CA        -47.7991  -23.4549   15.6876 C.3       8 UNK         0.0248 
     46 CB        -46.3393  -23.9353   15.6782 C.3       8 UNK        -0.2001 
     47 N         -48.3637  -23.5819   14.3386 N.am      8 UNK        -0.4140 
     48 C         -49.5900  -23.1658   13.9848 C.2       8 UNK         0.5028 
     49 O         -50.3431  -22.5550   14.7433 O.2       8 UNK        -0.5428 
     50 CA        -50.1084  -23.5599   12.5904 C.3       7 UNK         0.0264 
     51 CB        -49.9423  -22.4044   11.5925 C.3       7 UNK        -0.1988 
     52 N         -49.5161  -24.7867   12.0430 N.am      7 UNK        -0.4454 
     53 C         -49.6170  -25.9976   12.6151 C.2       7 UNK         0.5027 
     54 O         -50.1452  -26.1785   13.7124 O.2       7 UNK        -0.5083 
     55 CA        -49.0345  -27.2050   11.8625 C.3       6 UNK         0.0844 
     56 C56       -50.0350  -27.7173   10.8049 C.3       14 UNK        -0.0967 
     57 S57       -49.6342  -29.4086   10.2627 S.3       14 UNK        -0.2604 
     58 C58       -50.2003  -29.3748    8.5392 C.3       14 UNK         0.0134 
     59 N         -47.7434  -26.8583   11.2692 N.am      6 UNK        -0.4116 
     60 C         -46.5589  -27.3308   11.6769 C.2       5 UNK         0.5034 
     61 O         -46.4159  -28.1768   12.5605 O.2       5 UNK        -0.5045 
     62 CA        -45.3053  -26.7483   10.9962 C.3       5 UNK         0.0224 
     63 CB        -44.8633  -27.6474    9.8302 C.3       5 UNK        -0.1978 
     64 N         -45.4706  -25.3765   10.5042 N.am      5 UNK        -0.4737 
     65 C         -45.7913  -24.3163   11.2596 C.2       4 UNK         0.5027 
     66 O         -45.9732  -24.3660   12.4754 O.2       4 UNK        -0.5211 
     67 CA        -46.0012  -22.9804   10.5301 C.3       4 UNK         0.0297 
     68 CB        -44.6778  -22.2021   10.4638 C.3       4 UNK        -0.1993 
     69 N         -46.5713  -23.0811    9.1797 N.am      4 UNK        -0.4486 
     70 C         -47.6561  -23.7736    8.7993 C.2       3 UNK         0.4961 
     71 O         -48.2972  -24.5209    9.5430 O.2       3 UNK        -0.5105 
     72 CA        -48.1227  -23.6051    7.3416 C.3       3 UNK         0.0299 
     73 CB        -47.2814  -22.6125    6.5053 C.3       3 UNK        -0.1972 
     74 N         -48.2363  -24.8939    6.6540 N.am      3 UNK        -0.4305 
     75 C         -47.2613  -25.7857    6.4182 C.2       2 UNK         0.5006 
     76 O         -46.0969  -25.6351    6.7924 O.2       2 UNK        -0.5106 
     77 CA        -47.6363  -27.0677    5.6403 C.3       2 UNK         0.0296 
     78 CB        -47.0911  -28.3216    6.3489 C.3       2 UNK        -0.2002 
     79 N         -49.0787  -27.2322    5.4087 N.am      2 UNK        -0.4032 
     80 C         -49.7985  -26.6036    4.4652 C.2       1 UNK         0.5000 
     81 O         -49.3139  -25.8177    3.6501 O.2       1 UNK        -0.5238 
     82 H82       -52.7780  -30.3983    5.6891 H         1 UNK         0.0889 
     83 H83       -52.2717  -31.3216    4.2781 H         1 UNK         0.0889 
     84 H84       -51.1515  -31.0888    5.6239 H         1 UNK         0.0889 
     85 H85       -52.2785  -28.1844    5.7945 H         1 UNK         0.3028 
     86 H86       -51.6560  -26.8044    3.4277 H         1 UNK         0.0864 
     87 H87       -51.5410  -25.5212    6.2034 H         1 UNK         0.0720 
     88 H88       -51.9192  -24.7713    4.6881 H         1 UNK         0.0720 
     89 H89       -54.9192  -25.9452    7.6673 H         1 UNK         0.0814 
     90 H90       -53.2907  -25.3520    7.8236 H         1 UNK         0.0814 
     91 H91       -51.3660  -26.9966    7.9187 H         1 UNK         0.1469 
     92 H92       -52.3200  -31.0596    8.8891 H         1 UNK         0.1381 
     93 H93       -55.4396  -28.3232    7.8022 H         1 UNK         0.1206 
     94 H94       -54.5763  -31.8868    8.5257 H         1 UNK         0.0813 
     95 H95       -55.7285  -30.8628    7.7125 H         1 UNK         0.0813 
     96 H96       -55.1617  -32.6210   11.2422 H         1 UNK         0.0638 
     97 H97       -53.8754  -31.4677   10.9965 H         1 UNK         0.0638 
     98 H98       -56.1856  -31.0704   12.9608 H         1 UNK         0.0568 
     99 H99       -53.6125  -32.0246   15.6569 H         1 UNK         0.3450 
    100 H100      -54.0212  -30.4213   15.0976 H         1 UNK         0.3450 
    101 H101      -55.5415  -28.9608   13.1003 H         1 UNK         0.2987 
    102 H102      -52.3913  -27.3041   13.0043 H         1 UNK         0.0766 
    103 H103      -53.7550  -25.7157   11.7025 H         1 UNK         0.0798 
    104 H104      -55.0163  -26.9275   11.4746 H         1 UNK         0.0798 
    105 H105      -53.4378  -27.1565   10.7479 H         1 UNK         0.0798 
    106 H106      -53.4054  -26.5905   14.7827 H         1 UNK         0.3198 
    107 H107      -56.5852  -25.7379   15.7430 H         1 UNK         0.0843 
    108 H108      -56.7226  -28.0933   16.5760 H         1 UNK         0.0831 
    109 H109      -56.2346  -26.9981   17.8579 H         1 UNK         0.0831 
    110 H110      -55.0377  -28.0304   17.0761 H         1 UNK         0.0831 
    111 H111      -54.0257  -25.7749   17.1141 H         1 UNK         0.3133 
    112 H112      -52.9309  -22.6286   15.8515 H         1 UNK         0.0566 
    113 H113      -52.7652  -22.2171   18.2889 H         1 UNK         0.0814 
    114 H114      -54.4368  -22.1612   17.7540 H         1 UNK         0.0814 
    115 H115      -53.8462  -23.5699   18.6185 H         1 UNK         0.0814 
    116 H116      -51.1790  -23.8820   16.0535 H         1 UNK         0.3091 
    117 H117      -49.8518  -25.9639   18.3100 H         1 UNK         0.0702 
    118 H118      -49.4060  -27.8771   16.7352 H         1 UNK         0.0785 
    119 H119      -50.8838  -27.4857   15.8572 H         1 UNK         0.0785 
    120 H120      -50.9646  -28.0093   17.5308 H         1 UNK         0.0785 
    121 H121      -49.4104  -25.4858   15.4287 H         1 UNK         0.2998 
    122 H122      -47.8058  -22.3938   15.9450 H         1 UNK         0.0697 
    123 H123      -46.2593  -24.9759   15.3607 H         1 UNK         0.0825 
    124 H124      -45.8934  -23.8600   16.6710 H         1 UNK         0.0825 
    125 H125      -45.7287  -23.3325   15.0057 H         1 UNK         0.0825 
    126 H126      -47.7872  -24.0519   13.6492 H         1 UNK         0.3029 
    127 H127      -51.1786  -23.7502   12.6994 H         1 UNK         0.0897 
    128 H128      -50.3728  -22.6517   10.6220 H         1 UNK         0.0792 
    129 H129      -50.4476  -21.5063   11.9507 H         1 UNK         0.0792 
    130 H130      -48.8963  -22.1473   11.4403 H         1 UNK         0.0792 
    131 H131      -49.0726  -24.7020   11.1294 H         1 UNK         0.3086 
    132 H132      -48.9064  -27.9911   12.6100 H         1 UNK         0.0583 
    133 H133      -51.0512  -27.7500   11.1957 H         1 UNK         0.1020 
    134 H134      -50.0576  -27.0400    9.9499 H         1 UNK         0.1020 
    135 H135      -49.6128  -28.6389    7.9933 H         1 UNK         0.0694 
    136 H136      -49.9865  -30.3403    8.0783 H         1 UNK         0.0694 
    137 H137      -47.7531  -26.1425   10.5504 H         1 UNK         0.2989 
    138 H138      -44.5106  -26.7350   11.7453 H         1 UNK         0.1055 
    139 H139      -44.7189  -28.6768   10.1616 H         1 UNK         0.0806 
    140 H140      -43.9183  -27.3103    9.4039 H         1 UNK         0.0806 
    141 H141      -45.6049  -27.6626    9.0307 H         1 UNK         0.0806 
    142 H142      -45.3751  -25.2354    9.5073 H         1 UNK         0.3061 
    143 H143      -46.6965  -22.3956   11.1318 H         1 UNK         0.0734 
    144 H144      -44.2375  -22.0948   11.4565 H         1 UNK         0.0832 
    145 H145      -43.9432  -22.7071    9.8351 H         1 UNK         0.0832 
    146 H146      -44.8253  -21.1967   10.0691 H         1 UNK         0.0832 
    147 H147      -46.1163  -22.5249    8.4703 H         1 UNK         0.3156 
    148 H148      -49.1352  -23.2030    7.4010 H         1 UNK         0.0589 
    149 H149      -46.2438  -22.9322    6.4004 H         1 UNK         0.0808 
    150 H150      -47.6915  -22.5085    5.5005 H         1 UNK         0.0808 
    151 H151      -47.2837  -21.6159    6.9489 H         1 UNK         0.0808 
    152 H152      -49.1591  -25.1245    6.3220 H         1 UNK         0.3098 
    153 H153      -47.1457  -26.9977    4.6672 H         1 UNK         0.0720 
    154 H154      -46.0005  -28.3095    6.3718 H         1 UNK         0.0791 
    155 H155      -47.3888  -29.2355    5.8344 H         1 UNK         0.0791 
    156 H156      -47.4292  -28.3866    7.3827 H         1 UNK         0.0791 
    157 H157      -49.5631  -27.8781    6.0124 H         1 UNK         0.3028 
@<TRIPOS>BOND
     1    1    2 1    
     2    1   82 1    
     3    1   83 1    
     4    1   84 1    
     5    2    3 2    
     6    2    4 am   BACKBONE|DICT|INTERRES
     7    4    5 1    
     8    4   85 1    
     9    5    6 1    
    10    5   80 1    
    11    5   86 1    
    12    6    7 1    
    13    6   87 1    
    14    6   88 1    
    15    7    8 1    
    16    8    9 1    
    17    8   89 1    
    18    8   90 1    
    19    9   10 ar   
    20    9   14 ar   
    21   10   11 ar   
    22   10   91 1    
    23   11   12 ar   
    24   11   58 1    
    25   12   13 ar   
    26   12   92 1    
    27   13   14 ar   
    28   13   15 1    
    29   14   93 1    
    30   15   16 1    
    31   15   94 1    
    32   15   95 1    
    33   16   17 1    
    34   17   18 1    
    35   17   96 1    
    36   17   97 1    
    37   18   19 1    
    38   18   22 1    
    39   18   98 1    
    40   19   20 am   BACKBONE|DICT|INTERRES
    41   19   21 2    
    42   20   99 1    
    43   20  100 1    
    44   22   23 am   BACKBONE|DICT|INTERRES
    45   22  101 1    
    46   23   24 2    
    47   23   25 1    
    48   25   26 1    
    49   25   27 1    
    50   25  102 1    
    51   26  103 1    
    52   26  104 1    
    53   26  105 1    
    54   27   28 am   BACKBONE|DICT|INTERRES
    55   27  106 1    
    56   28   29 2    
    57   28   30 1    
    58   30   31 1    
    59   30   32 1    
    60   30  107 1    
    61   31  108 1    
    62   31  109 1    
    63   31  110 1    
    64   32   33 am   BACKBONE|DICT|INTERRES
    65   32  111 1    
    66   33   34 2    
    67   33   35 1    
    68   35   36 1    
    69   35   37 1    
    70   35  112 1    
    71   36  113 1    
    72   36  114 1    
    73   36  115 1    
    74   37   38 am   BACKBONE|DICT|INTERRES
    75   37  116 1    
    76   38   39 2    
    77   38   40 1    
    78   40   41 1    
    79   40   42 1    
    80   40  117 1    
    81   41  118 1    
    82   41  119 1    
    83   41  120 1    
    84   42   43 am   BACKBONE|DICT|INTERRES
    85   42  121 1    
    86   43   44 2    
    87   43   45 1    
    88   45   46 1    
    89   45   47 1    
    90   45  122 1    
    91   46  123 1    
    92   46  124 1    
    93   46  125 1    
    94   47   48 am   BACKBONE|DICT|INTERRES
    95   47  126 1    
    96   48   49 2    
    97   48   50 1    
    98   50   51 1    
    99   50   52 1    
   100   50  127 1    
   101   51  128 1    
   102   51  129 1    
   103   51  130 1    
   104   52   53 am   BACKBONE|DICT|INTERRES
   105   52  131 1    
   106   53   54 2    
   107   53   55 1    
   108   55   56 1    
   109   55   59 1    
   110   55  132 1    
   111   56   57 1    
   112   56  133 1    
   113   56  134 1    
   114   57   58 1    
   115   58  135 1    
   116   58  136 1    
   117   59   60 am   BACKBONE|DICT|INTERRES
   118   59  137 1    
   119   60   61 2    
   120   60   62 1    
   121   62   63 1    
   122   62   64 1    
   123   62  138 1    
   124   63  139 1    
   125   63  140 1    
   126   63  141 1    
   127   64   65 am   BACKBONE|DICT|INTERRES
   128   64  142 1    
   129   65   66 2    
   130   65   67 1    
   131   67   68 1    
   132   67   69 1    
   133   67  143 1    
   134   68  144 1    
   135   68  145 1    
   136   68  146 1    
   137   69   70 am   BACKBONE|DICT|INTERRES
   138   69  147 1    
   139   70   71 2    
   140   70   72 1    
   141   72   73 1    
   142   72   74 1    
   143   72  148 1    
   144   73  149 1    
   145   73  150 1    
   146   73  151 1    
   147   74   75 am   BACKBONE|DICT|INTERRES
   148   74  152 1    
   149   75   76 2    
   150   75   77 1    
   151   77   78 1    
   152   77   79 1    
   153   77  153 1    
   154   78  154 1    
   155   78  155 1    
   156   78  156 1    
   157   79   80 am   BACKBONE|DICT|INTERRES
   158   79  157 1    
   159   80   81 2    
@<TRIPOS>SUBSTRUCTURE
     1 UNK         1 GROUP             0       ****    0 ROOT    
