@<TRIPOS>MOLECULE
3R207
157   159    1
SMALL
USER_CHARGES


@<TRIPOS>ATOM
      1 CA        -52.4240  -22.8953    6.6839 C.3       0 UNK        -0.1975 
      2 C         -52.0410  -24.2528    6.1123 C.2       0 UNK         0.4852 
      3 O         -52.4898  -24.5991    5.0187 O.2       0 UNK        -0.5216 
      4 N         -51.2260  -25.0163    6.8548 N.am      1 UNK        -0.4461 
      5 CA        -50.6620  -26.3256    6.4947 C.3       1 UNK         0.0864 
      6 C6        -51.7424  -27.3846    6.1218 C.3       14 UNK        -0.0898 
      7 S7        -51.3851  -29.0246    6.8393 S.3       14 UNK        -0.2598 
      8 C8        -52.6947  -29.1770    8.0984 C.3       14 UNK         0.0286 
      9 C9        -52.3522  -28.4380    9.3858 C.ar      14 UNK        -0.0844 
     10 C10       -52.5131  -27.0534    9.4761 C.ar      14 UNK        -0.0881 
     11 C11       -52.2085  -26.3761   10.6585 C.ar      14 UNK        -0.0643 
     12 C12       -51.7890  -27.1022   11.7787 C.ar      14 UNK        -0.0930 
     13 C13       -51.6240  -28.4906   11.7074 C.ar      14 UNK        -0.0827 
     14 C14       -51.8940  -29.1463   10.4996 C.ar      14 UNK        -0.1249 
     15 C15       -51.0802  -29.2479   12.9185 C.3       14 UNK         0.0141 
     16 S16       -51.7204  -30.9480   13.1183 S.3       14 UNK        -0.2313 
     17 C17       -53.1655  -30.7262   14.2084 C.3       14 UNK        -0.0915 
     18 CA        -54.5144  -30.8446   13.4532 C.3       13 UNK         0.0968 
     19 C         -55.6961  -31.0160   14.4551 C.2       13 UNK         0.5732 
     20 N         -56.6220  -30.0720   14.5843 N.am      13 UNK        -0.7310 
     21 O         -55.7783  -32.0415   15.1270 O.2       13 UNK        -0.5035 
     22 N         -54.6816  -29.7446   12.4962 N.am      13 UNK        -0.4233 
     23 C         -55.6009  -29.6967   11.5239 C.2       13 UNK         0.4989 
     24 O         -56.3165  -30.6510   11.2146 O.2       13 UNK        -0.4996 
     25 CA        -55.7610  -28.3465   10.7902 C.3       12 UNK         0.0216 
     26 CB        -57.1875  -28.1405   10.2378 C.3       12 UNK        -0.1964 
     27 N         -55.3461  -27.1837   11.5934 N.am      12 UNK        -0.4276 
     28 C         -55.8328  -26.8209   12.7893 C.2       12 UNK         0.5020 
     29 O         -56.7424  -27.4149   13.3743 O.2       12 UNK        -0.5489 
     30 CA        -55.1815  -25.5999   13.4560 C.3       11 UNK         0.0294 
     31 CB        -56.0042  -24.3304   13.1870 C.3       11 UNK        -0.2019 
     32 N         -55.0703  -25.8156   14.8988 N.am      11 UNK        -0.4493 
     33 C         -54.1498  -26.6051   15.4640 C.2       11 UNK         0.4932 
     34 O         -53.2178  -27.1275   14.8493 O.2       11 UNK        -0.5029 
     35 CA        -54.3325  -26.8997   16.9553 C.3       10 UNK         0.0280 
     36 CB        -55.3308  -28.0625   17.1362 C.3       10 UNK        -0.1976 
     37 N         -53.0312  -27.2334   17.5307 N.am      10 UNK        -0.4242 
     38 C         -52.7727  -27.4377   18.8281 C.2       10 UNK         0.5072 
     39 O         -53.6142  -27.3470   19.7235 O.2       10 UNK        -0.5224 
     40 CA        -51.3251  -27.8052   19.1981 C.3       9 UNK         0.0343 
     41 CB        -51.0375  -29.2785   18.8618 C.3       9 UNK        -0.2003 
     42 N         -50.3148  -26.9559   18.5632 N.am      9 UNK        -0.4272 
     43 C         -50.1883  -25.6310   18.7350 C.2       9 UNK         0.4988 
     44 O         -50.9353  -24.9589   19.4471 O.2       9 UNK        -0.5108 
     45 CA        -49.0135  -24.9293   18.0239 C.3       8 UNK         0.0248 
     46 CB        -47.9567  -24.4808   19.0480 C.3       8 UNK        -0.2001 
     47 N         -48.3590  -25.7433   16.9931 N.am      8 UNK        -0.4140 
     48 C         -48.8940  -26.0267   15.7997 C.2       8 UNK         0.5028 
     49 O         -50.0144  -25.6541   15.4435 O.2       8 UNK        -0.5428 
     50 CA        -48.0525  -26.9159   14.8707 C.3       7 UNK         0.0264 
     51 CB        -48.2825  -28.4018   15.1959 C.3       7 UNK        -0.1988 
     52 N         -48.4079  -26.6584   13.4746 N.am      7 UNK        -0.4454 
     53 C         -47.9504  -25.6143   12.7733 C.2       7 UNK         0.5027 
     54 O         -47.0680  -24.8499   13.1740 O.2       7 UNK        -0.5083 
     55 CA        -48.6350  -25.3441   11.4198 C.3       6 UNK         0.0844 
     56 C56       -49.7165  -24.2505   11.5949 C.3       14 UNK        -0.0967 
     57 S57       -50.7796  -24.0709   10.1243 S.3       14 UNK        -0.2604 
     58 C58       -52.3170  -24.8588   10.7020 C.3       14 UNK         0.0134 
     59 N         -47.6442  -24.9681   10.4115 N.am      6 UNK        -0.4116 
     60 C         -46.6928  -25.7706    9.9218 C.2       5 UNK         0.5034 
     61 O         -46.6099  -26.9717   10.1865 O.2       5 UNK        -0.5045 
     62 CA        -45.6725  -25.1126    8.9731 C.3       5 UNK         0.0224 
     63 CB        -44.5941  -26.0973    8.4839 C.3       5 UNK        -0.1978 
     64 N         -46.3200  -24.4926    7.8130 N.am      5 UNK        -0.4737 
     65 C         -46.9144  -23.2893    7.8150 C.2       4 UNK         0.5027 
     66 O         -47.0142  -22.5998    8.8316 O.2       4 UNK        -0.5211 
     67 CA        -47.5249  -22.7769    6.4933 C.3       4 UNK         0.0297 
     68 CB        -47.4197  -21.2444    6.3468 C.3       4 UNK        -0.1993 
     69 N         -47.0186  -23.4630    5.2986 N.am      4 UNK        -0.4486 
     70 C         -45.7609  -23.4781    4.8260 C.2       3 UNK         0.4961 
     71 O         -44.8469  -22.7981    5.2946 O.2       3 UNK        -0.5105 
     72 CA        -45.4679  -24.4317    3.6436 C.3       3 UNK         0.0299 
     73 CB        -44.0093  -24.9378    3.6477 C.3       3 UNK        -0.1972 
     74 N         -46.4029  -25.5633    3.5405 N.am      3 UNK        -0.4305 
     75 C         -46.6506  -26.4908    4.4776 C.2       2 UNK         0.5006 
     76 O         -46.0817  -26.5450    5.5687 O.2       2 UNK        -0.5106 
     77 CA        -47.7919  -27.4766    4.1772 C.3       2 UNK         0.0296 
     78 CB        -47.2796  -28.9262    4.1796 C.3       2 UNK        -0.2002 
     79 N         -48.8882  -27.3467    5.1434 N.am      2 UNK        -0.4032 
     80 C         -49.5587  -26.2173    5.4169 C.2       1 UNK         0.5000 
     81 O         -49.3227  -25.1392    4.8620 O.2       1 UNK        -0.5238 
     82 H82       -52.1737  -22.1069    5.9746 H         1 UNK         0.0889 
     83 H83       -51.9061  -22.6830    7.6188 H         1 UNK         0.0889 
     84 H84       -53.4963  -22.8570    6.8731 H         1 UNK         0.0889 
     85 H85       -50.9054  -24.6525    7.7432 H         1 UNK         0.3028 
     86 H86       -50.1551  -26.6483    7.4063 H         1 UNK         0.0864 
     87 H87       -51.8460  -27.4910    5.0398 H         1 UNK         0.0720 
     88 H88       -52.7305  -27.0684    6.4548 H         1 UNK         0.0720 
     89 H89       -52.8440  -30.2372    8.3086 H         1 UNK         0.0814 
     90 H90       -53.6453  -28.8197    7.6998 H         1 UNK         0.0814 
     91 H91       -52.8628  -26.4940    8.6213 H         1 UNK         0.1469 
     92 H92       -51.5672  -26.5823   12.7015 H         1 UNK         0.1381 
     93 H93       -51.7511  -30.2150   10.4228 H         1 UNK         0.1206 
     94 H94       -49.9981  -29.3166   12.8048 H         1 UNK         0.0813 
     95 H95       -51.2591  -28.6842   13.8345 H         1 UNK         0.0813 
     96 H96       -53.0998  -29.7754   14.7381 H         1 UNK         0.0638 
     97 H97       -53.0894  -31.4981   14.9765 H         1 UNK         0.0638 
     98 H98       -54.4889  -31.7693   12.8738 H         1 UNK         0.0568 
     99 H99       -57.3787  -30.2199   15.2314 H         1 UNK         0.3450 
    100 H100      -56.5822  -29.2083   14.0504 H         1 UNK         0.3450 
    101 H101      -54.1170  -28.9260   12.6685 H         1 UNK         0.2987 
    102 H102      -55.0876  -28.3898    9.9353 H         1 UNK         0.0766 
    103 H103      -57.4519  -28.9262    9.5290 H         1 UNK         0.0798 
    104 H104      -57.2758  -27.1901    9.7116 H         1 UNK         0.0798 
    105 H105      -57.9345  -28.1549   11.0322 H         1 UNK         0.0798 
    106 H106      -54.5771  -26.6526   11.2087 H         1 UNK         0.3198 
    107 H107      -54.1791  -25.4603   13.0498 H         1 UNK         0.0843 
    108 H108      -57.0215  -24.4190   13.5709 H         1 UNK         0.0831 
    109 H109      -56.0768  -24.1319   12.1168 H         1 UNK         0.0831 
    110 H110      -55.5459  -23.4550   13.6475 H         1 UNK         0.0831 
    111 H111      -55.8358  -25.4781   15.4644 H         1 UNK         0.3133 
    112 H112      -54.7132  -26.0029   17.4480 H         1 UNK         0.0566 
    113 H113      -54.9289  -28.9968   16.7432 H         1 UNK         0.0814 
    114 H114      -56.2673  -27.8652   16.6124 H         1 UNK         0.0814 
    115 H115      -55.5834  -28.2229   18.1838 H         1 UNK         0.0814 
    116 H116      -52.2834  -27.2959   16.8497 H         1 UNK         0.3091 
    117 H117      -51.2221  -27.6795   20.2781 H         1 UNK         0.0702 
    118 H118      -50.0543  -29.5833   19.2211 H         1 UNK         0.0785 
    119 H119      -51.0759  -29.4659   17.7878 H         1 UNK         0.0785 
    120 H120      -51.7698  -29.9358   19.3331 H         1 UNK         0.0785 
    121 H121      -49.6452  -27.4179   17.9675 H         1 UNK         0.2998 
    122 H122      -49.4193  -24.0364   17.5430 H         1 UNK         0.0697 
    123 H123      -47.5064  -25.3303   19.5631 H         1 UNK         0.0825 
    124 H124      -48.3981  -23.8361   19.8096 H         1 UNK         0.0825 
    125 H125      -47.1573  -23.9124   18.5722 H         1 UNK         0.0825 
    126 H126      -47.4386  -26.0969   17.2143 H         1 UNK         0.3029 
    127 H127      -46.9941  -26.6866   15.0163 H         1 UNK         0.0897 
    128 H128      -49.3411  -28.6606   15.2048 H         1 UNK         0.0792 
    129 H129      -47.8851  -28.6497   16.1810 H         1 UNK         0.0792 
    130 H130      -47.7815  -29.0507   14.4771 H         1 UNK         0.0792 
    131 H131      -49.1644  -27.2050   13.0935 H         1 UNK         0.3086 
    132 H132      -49.1145  -26.2660   11.0836 H         1 UNK         0.0583 
    133 H133      -50.3429  -24.4573   12.4652 H         1 UNK         0.1020 
    134 H134      -49.2505  -23.2841   11.7985 H         1 UNK         0.1020 
    135 H135      -52.5550  -24.5091   11.7068 H         1 UNK         0.0694 
    136 H136      -53.1385  -24.5281   10.0645 H         1 UNK         0.0694 
    137 H137      -47.6311  -23.9953   10.1232 H         1 UNK         0.2989 
    138 H138      -45.1638  -24.3337    9.5461 H         1 UNK         0.1055 
    139 H139      -45.0302  -26.9448    7.9541 H         1 UNK         0.0806 
    140 H140      -44.0236  -26.4985    9.3225 H         1 UNK         0.0806 
    141 H141      -43.8860  -25.6114    7.8123 H         1 UNK         0.0806 
    142 H142      -46.2972  -25.0302    6.9515 H         1 UNK         0.3061 
    143 H143      -48.5861  -23.0243    6.5470 H         1 UNK         0.0734 
    144 H144      -46.3842  -20.9042    6.3696 H         1 UNK         0.0832 
    145 H145      -47.8662  -20.9030    5.4130 H         1 UNK         0.0832 
    146 H146      -47.9434  -20.7374    7.1581 H         1 UNK         0.0832 
    147 H147      -47.7009  -24.0767    4.8579 H         1 UNK         0.3156 
    148 H148      -45.6090  -23.8384    2.7390 H         1 UNK         0.0589 
    149 H149      -43.8157  -25.5995    2.8036 H         1 UNK         0.0808 
    150 H150      -43.3049  -24.1083    3.5737 H         1 UNK         0.0808 
    151 H151      -43.7735  -25.4827    4.5625 H         1 UNK         0.0808 
    152 H152      -46.9579  -25.5868    2.6955 H         1 UNK         0.3098 
    153 H153      -48.1994  -27.2605    3.1876 H         1 UNK         0.0720 
    154 H154      -46.8934  -29.2160    5.1580 H         1 UNK         0.0791 
    155 H155      -46.4706  -29.0551    3.4593 H         1 UNK         0.0791 
    156 H156      -48.0687  -29.6279    3.9085 H         1 UNK         0.0791 
    157 H157      -49.1421  -28.1838    5.6497 H         1 UNK         0.3028 
@<TRIPOS>BOND
     1    1    2 1    
     2    1   82 1    
     3    1   83 1    
     4    1   84 1    
     5    2    3 2    
     6    2    4 am   BACKBONE|DICT|INTERRES
     7    4    5 1    
     8    4   85 1    
     9    5    6 1    
    10    5   80 1    
    11    5   86 1    
    12    6    7 1    
    13    6   87 1    
    14    6   88 1    
    15    7    8 1    
    16    8    9 1    
    17    8   89 1    
    18    8   90 1    
    19    9   10 ar   
    20    9   14 ar   
    21   10   11 ar   
    22   10   91 1    
    23   11   12 ar   
    24   11   58 1    
    25   12   13 ar   
    26   12   92 1    
    27   13   14 ar   
    28   13   15 1    
    29   14   93 1    
    30   15   16 1    
    31   15   94 1    
    32   15   95 1    
    33   16   17 1    
    34   17   18 1    
    35   17   96 1    
    36   17   97 1    
    37   18   19 1    
    38   18   22 1    
    39   18   98 1    
    40   19   20 am   BACKBONE|DICT|INTERRES
    41   19   21 2    
    42   20   99 1    
    43   20  100 1    
    44   22   23 am   BACKBONE|DICT|INTERRES
    45   22  101 1    
    46   23   24 2    
    47   23   25 1    
    48   25   26 1    
    49   25   27 1    
    50   25  102 1    
    51   26  103 1    
    52   26  104 1    
    53   26  105 1    
    54   27   28 am   BACKBONE|DICT|INTERRES
    55   27  106 1    
    56   28   29 2    
    57   28   30 1    
    58   30   31 1    
    59   30   32 1    
    60   30  107 1    
    61   31  108 1    
    62   31  109 1    
    63   31  110 1    
    64   32   33 am   BACKBONE|DICT|INTERRES
    65   32  111 1    
    66   33   34 2    
    67   33   35 1    
    68   35   36 1    
    69   35   37 1    
    70   35  112 1    
    71   36  113 1    
    72   36  114 1    
    73   36  115 1    
    74   37   38 am   BACKBONE|DICT|INTERRES
    75   37  116 1    
    76   38   39 2    
    77   38   40 1    
    78   40   41 1    
    79   40   42 1    
    80   40  117 1    
    81   41  118 1    
    82   41  119 1    
    83   41  120 1    
    84   42   43 am   BACKBONE|DICT|INTERRES
    85   42  121 1    
    86   43   44 2    
    87   43   45 1    
    88   45   46 1    
    89   45   47 1    
    90   45  122 1    
    91   46  123 1    
    92   46  124 1    
    93   46  125 1    
    94   47   48 am   BACKBONE|DICT|INTERRES
    95   47  126 1    
    96   48   49 2    
    97   48   50 1    
    98   50   51 1    
    99   50   52 1    
   100   50  127 1    
   101   51  128 1    
   102   51  129 1    
   103   51  130 1    
   104   52   53 am   BACKBONE|DICT|INTERRES
   105   52  131 1    
   106   53   54 2    
   107   53   55 1    
   108   55   56 1    
   109   55   59 1    
   110   55  132 1    
   111   56   57 1    
   112   56  133 1    
   113   56  134 1    
   114   57   58 1    
   115   58  135 1    
   116   58  136 1    
   117   59   60 am   BACKBONE|DICT|INTERRES
   118   59  137 1    
   119   60   61 2    
   120   60   62 1    
   121   62   63 1    
   122   62   64 1    
   123   62  138 1    
   124   63  139 1    
   125   63  140 1    
   126   63  141 1    
   127   64   65 am   BACKBONE|DICT|INTERRES
   128   64  142 1    
   129   65   66 2    
   130   65   67 1    
   131   67   68 1    
   132   67   69 1    
   133   67  143 1    
   134   68  144 1    
   135   68  145 1    
   136   68  146 1    
   137   69   70 am   BACKBONE|DICT|INTERRES
   138   69  147 1    
   139   70   71 2    
   140   70   72 1    
   141   72   73 1    
   142   72   74 1    
   143   72  148 1    
   144   73  149 1    
   145   73  150 1    
   146   73  151 1    
   147   74   75 am   BACKBONE|DICT|INTERRES
   148   74  152 1    
   149   75   76 2    
   150   75   77 1    
   151   77   78 1    
   152   77   79 1    
   153   77  153 1    
   154   78  154 1    
   155   78  155 1    
   156   78  156 1    
   157   79   80 am   BACKBONE|DICT|INTERRES
   158   79  157 1    
   159   80   81 2    
@<TRIPOS>SUBSTRUCTURE
     1 UNK         1 GROUP             0       ****    0 ROOT    
