@<TRIPOS>MOLECULE
3R207
157   159    1
SMALL
USER_CHARGES


@<TRIPOS>ATOM
      1 CA        -50.8576  -31.7075    4.3000 C.3       0 UNK        -0.1975 
      2 C         -51.0908  -30.8129    5.5091 C.2       0 UNK         0.4852 
      3 O         -52.2193  -30.7342    5.9960 O.2       0 UNK        -0.5216 
      4 N         -50.0296  -30.1530    5.9906 N.am      1 UNK        -0.4461 
      5 CA        -50.0518  -29.2190    7.1203 C.3       1 UNK         0.0864 
      6 C6        -48.8028  -29.3837    8.0328 C.3       14 UNK        -0.0898 
      7 S7        -48.7293  -31.0534    8.7724 S.3       14 UNK        -0.2598 
      8 C8        -49.3800  -30.7827   10.4552 C.3       14 UNK         0.0286 
      9 C9        -50.7344  -30.0869   10.4475 C.ar      14 UNK        -0.0844 
     10 C10       -50.8403  -28.7643   10.8849 C.ar      14 UNK        -0.0881 
     11 C11       -52.0662  -28.0935   10.8431 C.ar      14 UNK        -0.0643 
     12 C12       -53.1928  -28.7623   10.3590 C.ar      14 UNK        -0.0930 
     13 C13       -53.1071  -30.0958    9.9486 C.ar      14 UNK        -0.0827 
     14 C14       -51.8759  -30.7560    9.9964 C.ar      14 UNK        -0.1249 
     15 C15       -54.3531  -30.8145    9.4631 C.3       14 UNK         0.0141 
     16 S16       -55.4327  -31.2383   10.8662 S.3       14 UNK        -0.2313 
     17 C17       -57.0753  -30.9355   10.1358 C.3       14 UNK        -0.0915 
     18 CA        -57.5151  -29.4432   10.2351 C.3       13 UNK         0.0968 
     19 C         -58.8358  -29.1528    9.4574 C.2       13 UNK         0.5732 
     20 N         -59.6612  -28.2053    9.8868 N.am      13 UNK        -0.7310 
     21 O         -59.1054  -29.7677    8.4279 O.2       13 UNK        -0.5035 
     22 N         -57.4788  -28.9119   11.6107 N.am      13 UNK        -0.4233 
     23 C         -58.2328  -29.3095   12.6420 C.2       13 UNK         0.4989 
     24 O         -59.0699  -30.2119   12.5776 O.2       13 UNK        -0.4996 
     25 CA        -58.0055  -28.5622   13.9712 C.3       12 UNK         0.0216 
     26 CB        -59.0165  -28.9692   15.0605 C.3       12 UNK        -0.1964 
     27 N         -56.6486  -28.7505   14.4921 N.am      12 UNK        -0.4276 
     28 C         -55.5498  -28.1299   14.0455 C.2       12 UNK         0.5020 
     29 O         -55.5430  -27.3536   13.0854 O.2       12 UNK        -0.5489 
     30 CA        -54.2397  -28.4589   14.7811 C.3       11 UNK         0.0294 
     31 CB        -53.5150  -29.6336   14.1048 C.3       11 UNK        -0.2019 
     32 N         -53.3400  -27.3051   14.8429 N.am      11 UNK        -0.4493 
     33 C         -53.5475  -26.2133   15.5936 C.2       11 UNK         0.4932 
     34 O         -54.5261  -26.0728   16.3302 O.2       11 UNK        -0.5029 
     35 CA        -52.4756  -25.1023   15.5190 C.3       10 UNK         0.0280 
     36 CB        -52.5365  -24.1276   16.7136 C.3       10 UNK        -0.1976 
     37 N         -51.1061  -25.6035   15.3410 N.am      10 UNK        -0.4242 
     38 C         -50.4465  -26.4680   16.1285 C.2       10 UNK         0.5072 
     39 O         -50.9098  -26.9664   17.1553 O.2       10 UNK        -0.5224 
     40 CA        -49.0309  -26.8657   15.6810 C.3       9 UNK         0.0343 
     41 CB        -49.1000  -27.8932   14.5385 C.3       9 UNK        -0.2003 
     42 N         -48.1966  -25.7280   15.2812 N.am      9 UNK        -0.4272 
     43 C         -47.7463  -24.7860   16.1249 C.2       9 UNK         0.4988 
     44 O         -48.0135  -24.7572   17.3269 O.2       9 UNK        -0.5108 
     45 CA        -46.8178  -23.7060   15.5429 C.3       8 UNK         0.0248 
     46 CB        -45.4036  -24.2665   15.3188 C.3       8 UNK        -0.2001 
     47 N         -47.3256  -23.1349   14.2958 N.am      8 UNK        -0.4140 
     48 C         -48.3831  -22.3145   14.2115 C.2       8 UNK         0.5028 
     49 O         -48.9935  -21.8774   15.1880 O.2       8 UNK        -0.5428 
     50 CA        -48.8635  -21.9392   12.7957 C.3       7 UNK         0.0264 
     51 CB        -48.0627  -20.7491   12.2464 C.3       7 UNK        -0.1988 
     52 N         -48.8087  -23.0615   11.8507 N.am      7 UNK        -0.4454 
     53 C         -49.4864  -24.2070   12.0201 C.2       7 UNK         0.5027 
     54 O         -50.2465  -24.4109   12.9666 O.2       7 UNK        -0.5083 
     55 CA        -49.2267  -25.3544   11.0267 C.3       6 UNK         0.0844 
     56 C56       -50.1552  -25.3333    9.7898 C.3       14 UNK        -0.0967 
     57 S57       -51.9608  -25.4029   10.0875 S.3       14 UNK        -0.2604 
     58 C58       -52.2021  -26.6740   11.3746 C.3       14 UNK         0.0134 
     59 N         -47.8142  -25.4512   10.6561 N.am      6 UNK        -0.4116 
     60 C         -46.8545  -25.8602   11.4985 C.2       5 UNK         0.5034 
     61 O         -47.0662  -26.2258   12.6541 O.2       5 UNK        -0.5045 
     62 CA        -45.4099  -25.7967   10.9844 C.3       5 UNK         0.0224 
     63 CB        -45.1164  -26.9568   10.0194 C.3       5 UNK        -0.1978 
     64 N         -45.1159  -24.5173   10.3366 N.am      5 UNK        -0.4737 
     65 C         -45.1303  -23.3334   10.9667 C.2       4 UNK         0.5027 
     66 O         -45.3383  -23.2030   12.1718 O.2       4 UNK        -0.5211 
     67 CA        -44.9165  -22.0789   10.1051 C.3       4 UNK         0.0297 
     68 CB        -43.4244  -21.7156   10.0522 C.3       4 UNK        -0.1993 
     69 N         -45.4382  -22.2010    8.7417 N.am      4 UNK        -0.4486 
     70 C         -46.7134  -22.4435    8.4060 C.2       3 UNK         0.4961 
     71 O         -47.6203  -22.6024    9.2278 O.2       3 UNK        -0.5105 
     72 CA        -47.0258  -22.5061    6.8963 C.3       3 UNK         0.0299 
     73 CB        -45.7820  -22.7667    6.0139 C.3       3 UNK        -0.1972 
     74 N         -48.0802  -23.4658    6.5515 N.am      3 UNK        -0.4305 
     75 C         -48.1034  -24.7794    6.8166 C.2       2 UNK         0.5006 
     76 O         -47.2854  -25.3684    7.5310 O.2       2 UNK        -0.5106 
     77 CA        -49.2326  -25.5679    6.1414 C.3       2 UNK         0.0296 
     78 CB        -49.0762  -25.5580    4.6057 C.3       2 UNK        -0.2002 
     79 N         -49.2216  -26.9443    6.6300 N.am      2 UNK        -0.4032 
     80 C         -50.2544  -27.7941    6.5662 C.2       1 UNK         0.5000 
     81 O         -51.3440  -27.4903    6.0755 O.2       1 UNK        -0.5238 
     82 H82       -49.8170  -31.6951    3.9763 H         1 UNK         0.0889 
     83 H83       -51.4762  -31.3784    3.4655 H         1 UNK         0.0889 
     84 H84       -51.1255  -32.7365    4.5382 H         1 UNK         0.0889 
     85 H85       -49.1355  -30.2600    5.5335 H         1 UNK         0.3028 
     86 H86       -50.9324  -29.4172    7.7331 H         1 UNK         0.0864 
     87 H87       -47.8826  -29.2335    7.4655 H         1 UNK         0.0720 
     88 H88       -48.7966  -28.6407    8.8322 H         1 UNK         0.0720 
     89 H89       -48.6501  -30.2091   11.0287 H         1 UNK         0.0814 
     90 H90       -49.4729  -31.7461   10.9584 H         1 UNK         0.0814 
     91 H91       -49.9594  -28.2714   11.2611 H         1 UNK         0.1469 
     92 H92       -54.1478  -28.2551   10.3358 H         1 UNK         0.1381 
     93 H93       -51.7994  -31.7831    9.6666 H         1 UNK         0.1206 
     94 H94       -54.0946  -31.7238    8.9183 H         1 UNK         0.0813 
     95 H95       -54.8768  -30.1716    8.7544 H         1 UNK         0.0813 
     96 H96       -57.7964  -31.5808   10.6392 H         1 UNK         0.0638 
     97 H97       -57.0517  -31.2689    9.0968 H         1 UNK         0.0638 
     98 H98       -56.7678  -28.8595    9.6973 H         1 UNK         0.0568 
     99 H99       -60.5062  -28.0172    9.3708 H         1 UNK         0.3450 
    100 H100      -59.4485  -27.6786   10.7183 H         1 UNK         0.3450 
    101 H101      -56.7881  -28.1904   11.7960 H         1 UNK         0.2987 
    102 H102      -58.1533  -27.4989   13.7692 H         1 UNK         0.0766 
    103 H103      -58.8830  -28.3785   15.9670 H         1 UNK         0.0798 
    104 H104      -58.9222  -30.0224   15.3286 H         1 UNK         0.0798 
    105 H105      -60.0413  -28.8096   14.7219 H         1 UNK         0.0798 
    106 H106      -56.5536  -29.4086   15.2526 H         1 UNK         0.3198 
    107 H107      -54.4789  -28.7482   15.8070 H         1 UNK         0.0843 
    108 H108      -54.1493  -30.5205   14.0741 H         1 UNK         0.0831 
    109 H109      -52.6057  -29.9046   14.6414 H         1 UNK         0.0831 
    110 H110      -53.2409  -29.4021   13.0767 H         1 UNK         0.0831 
    111 H111      -52.5244  -27.3322   14.2519 H         1 UNK         0.3133 
    112 H112      -52.7017  -24.5302   14.6179 H         1 UNK         0.0566 
    113 H113      -51.7894  -23.3391   16.6181 H         1 UNK         0.0814 
    114 H114      -53.5114  -23.6428   16.7770 H         1 UNK         0.0814 
    115 H115      -52.3641  -24.6398   17.6608 H         1 UNK         0.0814 
    116 H116      -50.6283  -25.2371   14.5174 H         1 UNK         0.3091 
    117 H117      -48.5424  -27.3471   16.5309 H         1 UNK         0.0702 
    118 H118      -48.1083  -28.2646   14.2797 H         1 UNK         0.0785 
    119 H119      -49.5417  -27.4666   13.6388 H         1 UNK         0.0785 
    120 H120      -49.7044  -28.7560   14.8224 H         1 UNK         0.0785 
    121 H121      -47.8786  -25.7153   14.3157 H         1 UNK         0.2998 
    122 H122      -46.7449  -22.9004   16.2767 H         1 UNK         0.0697 
    123 H123      -45.3937  -25.0536   14.5638 H         1 UNK         0.0825 
    124 H124      -44.9999  -24.6901   16.2393 H         1 UNK         0.0825 
    125 H125      -44.7167  -23.4855   14.9922 H         1 UNK         0.0825 
    126 H126      -46.8238  -23.3755   13.4453 H         1 UNK         0.3029 
    127 H127      -49.9099  -21.6362   12.8735 H         1 UNK         0.0897 
    128 H128      -48.3673  -20.4935   11.2312 H         1 UNK         0.0792 
    129 H129      -48.2142  -19.8637   12.8651 H         1 UNK         0.0792 
    130 H130      -46.9935  -20.9556   12.2383 H         1 UNK         0.0792 
    131 H131      -48.2357  -22.9454   11.0178 H         1 UNK         0.3086 
    132 H132      -49.4383  -26.2637   11.5795 H         1 UNK         0.0583 
    133 H133      -49.9534  -24.4431    9.1916 H         1 UNK         0.1020 
    134 H134      -49.9124  -26.1841    9.1554 H         1 UNK         0.1020 
    135 H135      -51.5390  -26.5178   12.2222 H         1 UNK         0.0694 
    136 H136      -53.2069  -26.5424   11.7794 H         1 UNK         0.0694 
    137 H137      -47.5513  -25.1361    9.7293 H         1 UNK         0.2989 
    138 H138      -44.7498  -25.8948   11.8494 H         1 UNK         0.1055 
    139 H139      -45.3247  -27.9181   10.4915 H         1 UNK         0.0806 
    140 H140      -44.0686  -26.9659    9.7190 H         1 UNK         0.0806 
    141 H141      -45.7230  -26.9007    9.1150 H         1 UNK         0.0806 
    142 H142      -44.9632  -24.5295    9.3381 H         1 UNK         0.3061 
    143 H143      -45.4474  -21.2542   10.5818 H         1 UNK         0.0734 
    144 H144      -43.0178  -21.5951   11.0576 H         1 UNK         0.0832 
    145 H145      -42.8364  -22.4878    9.5544 H         1 UNK         0.0832 
    146 H146      -43.2614  -20.7751    9.5256 H         1 UNK         0.0832 
    147 H147      -44.7697  -22.0848    7.9938 H         1 UNK         0.3156 
    148 H148      -47.4172  -21.5225    6.6332 H         1 UNK         0.0589 
    149 H149      -45.2795  -23.6968    6.2838 H         1 UNK         0.0808 
    150 H150      -46.0576  -22.8388    4.9615 H         1 UNK         0.0808 
    151 H151      -45.0556  -21.9566    6.0877 H         1 UNK         0.0808 
    152 H152      -48.8390  -23.0844    6.0041 H         1 UNK         0.3098 
    153 H153      -50.1795  -25.0994    6.4187 H         1 UNK         0.0720 
    154 H154      -49.1007  -24.5440    4.2055 H         1 UNK         0.0791 
    155 H155      -49.8809  -26.1084    4.1181 H         1 UNK         0.0791 
    156 H156      -48.1317  -26.0081    4.2972 H         1 UNK         0.0791 
    157 H157      -48.3523  -27.2169    7.0717 H         1 UNK         0.3028 
@<TRIPOS>BOND
     1    1    2 1    
     2    1   82 1    
     3    1   83 1    
     4    1   84 1    
     5    2    3 2    
     6    2    4 am   BACKBONE|DICT|INTERRES
     7    4    5 1    
     8    4   85 1    
     9    5    6 1    
    10    5   80 1    
    11    5   86 1    
    12    6    7 1    
    13    6   87 1    
    14    6   88 1    
    15    7    8 1    
    16    8    9 1    
    17    8   89 1    
    18    8   90 1    
    19    9   10 ar   
    20    9   14 ar   
    21   10   11 ar   
    22   10   91 1    
    23   11   12 ar   
    24   11   58 1    
    25   12   13 ar   
    26   12   92 1    
    27   13   14 ar   
    28   13   15 1    
    29   14   93 1    
    30   15   16 1    
    31   15   94 1    
    32   15   95 1    
    33   16   17 1    
    34   17   18 1    
    35   17   96 1    
    36   17   97 1    
    37   18   19 1    
    38   18   22 1    
    39   18   98 1    
    40   19   20 am   BACKBONE|DICT|INTERRES
    41   19   21 2    
    42   20   99 1    
    43   20  100 1    
    44   22   23 am   BACKBONE|DICT|INTERRES
    45   22  101 1    
    46   23   24 2    
    47   23   25 1    
    48   25   26 1    
    49   25   27 1    
    50   25  102 1    
    51   26  103 1    
    52   26  104 1    
    53   26  105 1    
    54   27   28 am   BACKBONE|DICT|INTERRES
    55   27  106 1    
    56   28   29 2    
    57   28   30 1    
    58   30   31 1    
    59   30   32 1    
    60   30  107 1    
    61   31  108 1    
    62   31  109 1    
    63   31  110 1    
    64   32   33 am   BACKBONE|DICT|INTERRES
    65   32  111 1    
    66   33   34 2    
    67   33   35 1    
    68   35   36 1    
    69   35   37 1    
    70   35  112 1    
    71   36  113 1    
    72   36  114 1    
    73   36  115 1    
    74   37   38 am   BACKBONE|DICT|INTERRES
    75   37  116 1    
    76   38   39 2    
    77   38   40 1    
    78   40   41 1    
    79   40   42 1    
    80   40  117 1    
    81   41  118 1    
    82   41  119 1    
    83   41  120 1    
    84   42   43 am   BACKBONE|DICT|INTERRES
    85   42  121 1    
    86   43   44 2    
    87   43   45 1    
    88   45   46 1    
    89   45   47 1    
    90   45  122 1    
    91   46  123 1    
    92   46  124 1    
    93   46  125 1    
    94   47   48 am   BACKBONE|DICT|INTERRES
    95   47  126 1    
    96   48   49 2    
    97   48   50 1    
    98   50   51 1    
    99   50   52 1    
   100   50  127 1    
   101   51  128 1    
   102   51  129 1    
   103   51  130 1    
   104   52   53 am   BACKBONE|DICT|INTERRES
   105   52  131 1    
   106   53   54 2    
   107   53   55 1    
   108   55   56 1    
   109   55   59 1    
   110   55  132 1    
   111   56   57 1    
   112   56  133 1    
   113   56  134 1    
   114   57   58 1    
   115   58  135 1    
   116   58  136 1    
   117   59   60 am   BACKBONE|DICT|INTERRES
   118   59  137 1    
   119   60   61 2    
   120   60   62 1    
   121   62   63 1    
   122   62   64 1    
   123   62  138 1    
   124   63  139 1    
   125   63  140 1    
   126   63  141 1    
   127   64   65 am   BACKBONE|DICT|INTERRES
   128   64  142 1    
   129   65   66 2    
   130   65   67 1    
   131   67   68 1    
   132   67   69 1    
   133   67  143 1    
   134   68  144 1    
   135   68  145 1    
   136   68  146 1    
   137   69   70 am   BACKBONE|DICT|INTERRES
   138   69  147 1    
   139   70   71 2    
   140   70   72 1    
   141   72   73 1    
   142   72   74 1    
   143   72  148 1    
   144   73  149 1    
   145   73  150 1    
   146   73  151 1    
   147   74   75 am   BACKBONE|DICT|INTERRES
   148   74  152 1    
   149   75   76 2    
   150   75   77 1    
   151   77   78 1    
   152   77   79 1    
   153   77  153 1    
   154   78  154 1    
   155   78  155 1    
   156   78  156 1    
   157   79   80 am   BACKBONE|DICT|INTERRES
   158   79  157 1    
   159   80   81 2    
@<TRIPOS>SUBSTRUCTURE
     1 UNK         1 GROUP             0       ****    0 ROOT    
