@<TRIPOS>MOLECULE
3R207
157   159    1
SMALL
USER_CHARGES


@<TRIPOS>ATOM
      1 CA        -46.5307  -26.7460    3.2918 C.3       0 UNK        -0.1975 
      2 C         -47.3976  -26.2033    4.4165 C.2       0 UNK         0.4852 
      3 O         -46.9445  -26.1427    5.5595 O.2       0 UNK        -0.5216 
      4 N         -48.6291  -25.7762    4.1007 N.am      1 UNK        -0.4461 
      5 CA        -49.6638  -25.3079    5.0421 C.3       1 UNK         0.0864 
      6 C6        -50.2147  -26.4415    5.9503 C.3       14 UNK        -0.0898 
      7 S7        -50.7979  -27.9004    5.0246 S.3       14 UNK        -0.2598 
      8 C8        -52.5267  -28.0380    5.5971 C.3       14 UNK         0.0286 
      9 C9        -52.6928  -28.5429    7.0323 C.ar      14 UNK        -0.0844 
     10 C10       -51.8352  -29.5059    7.5810 C.ar      14 UNK        -0.0881 
     11 C11       -52.0599  -30.0179    8.8633 C.ar      14 UNK        -0.0643 
     12 C12       -53.1530  -29.5601    9.6025 C.ar      14 UNK        -0.0930 
     13 C13       -54.0224  -28.6032    9.0698 C.ar      14 UNK        -0.0827 
     14 C14       -53.7803  -28.0935    7.7900 C.ar      14 UNK        -0.1249 
     15 C15       -55.2787  -28.2008    9.8319 C.3       14 UNK         0.0141 
     16 S16       -54.9257  -27.5183   11.4847 S.3       14 UNK        -0.2313 
     17 C17       -56.4150  -28.0545   12.3990 C.3       14 UNK        -0.0915 
     18 CA        -56.1833  -29.2662   13.3438 C.3       13 UNK         0.0968 
     19 C         -55.8090  -30.5660   12.5681 C.2       13 UNK         0.5732 
     20 N         -54.6270  -31.1413   12.7582 N.am      13 UNK        -0.7310 
     21 O         -56.6163  -31.0672   11.7891 O.2       13 UNK        -0.5035 
     22 N         -55.3092  -28.9192   14.4774 N.am      13 UNK        -0.4233 
     23 C         -55.1903  -29.6494   15.5962 C.2       13 UNK         0.4989 
     24 O         -55.7960  -30.7025   15.7987 O.2       13 UNK        -0.4996 
     25 CA        -54.2507  -29.1092   16.6855 C.3       12 UNK         0.0216 
     26 CB        -52.7819  -29.3917   16.3273 C.3       12 UNK        -0.1964 
     27 N         -54.4427  -27.6778   16.9306 N.am      12 UNK        -0.4276 
     28 C         -55.5337  -27.1469   17.5076 C.2       12 UNK         0.5020 
     29 O         -56.4670  -27.8218   17.9451 O.2       12 UNK        -0.5489 
     30 CA        -55.6131  -25.6112   17.6341 C.3       11 UNK         0.0294 
     31 CB        -55.2210  -25.1690   19.0534 C.3       11 UNK        -0.2019 
     32 N         -54.7812  -24.8967   16.6647 N.am      11 UNK        -0.4493 
     33 C         -54.9681  -24.9087   15.3384 C.2       11 UNK         0.4932 
     34 O         -55.9538  -25.4093   14.7986 O.2       11 UNK        -0.5029 
     35 CA        -53.8688  -24.2843   14.4575 C.3       10 UNK         0.0280 
     36 CB        -54.3297  -22.9161   13.9294 C.3       10 UNK        -0.1976 
     37 N         -52.5423  -24.1324   15.0746 N.am      10 UNK        -0.4242 
     38 C         -51.8120  -25.0875   15.6695 C.2       10 UNK         0.5072 
     39 O         -52.2294  -26.2187   15.9169 O.2       10 UNK        -0.5224 
     40 CA        -50.3671  -24.7060   16.0308 C.3       9 UNK         0.0343 
     41 CB        -49.6759  -25.7675   16.9069 C.3       9 UNK        -0.2003 
     42 N         -49.6054  -24.5276   14.7963 N.am      9 UNK        -0.4272 
     43 C         -49.5483  -23.3860   14.0966 C.2       9 UNK         0.4988 
     44 O         -50.0166  -22.3183   14.4945 O.2       9 UNK        -0.5108 
     45 CA        -48.9337  -23.4658   12.6899 C.3       8 UNK         0.0248 
     46 CB        -47.4030  -23.5833   12.7581 C.3       8 UNK        -0.2001 
     47 N         -49.4877  -24.5773   11.9125 N.am      8 UNK        -0.4140 
     48 C         -50.7734  -24.6868   11.5410 C.2       8 UNK         0.5028 
     49 O         -51.6222  -23.8194   11.7471 O.2       8 UNK        -0.5428 
     50 CA        -51.1901  -25.9785   10.8261 C.3       7 UNK         0.0264 
     51 CB        -50.9494  -25.8679    9.3179 C.3       7 UNK        -0.1988 
     52 N         -50.4634  -27.1372   11.3355 N.am      7 UNK        -0.4454 
     53 C         -50.8731  -27.8945   12.3608 C.2       7 UNK         0.5027 
     54 O         -51.9184  -27.7087   12.9813 O.2       7 UNK        -0.5083 
     55 CA        -49.9572  -29.0634   12.7769 C.3       6 UNK         0.0844 
     56 C56       -50.3430  -30.3726   12.0399 C.3       14 UNK        -0.0967 
     57 S57       -49.7282  -30.4618   10.3161 S.3       14 UNK        -0.2604 
     58 C58       -51.1639  -31.1189    9.4133 C.3       14 UNK         0.0134 
     59 N         -48.5299  -28.7631   12.6356 N.am      6 UNK        -0.4116 
     60 C         -47.8611  -27.7857   13.2592 C.2       5 UNK         0.5034 
     61 O         -48.3578  -27.0202   14.0836 O.2       5 UNK        -0.5045 
     62 CA        -46.3925  -27.5981   12.8457 C.3       5 UNK         0.0224 
     63 CB        -45.4796  -28.5207   13.6688 C.3       5 UNK        -0.1978 
     64 N         -46.1429  -27.8089   11.4137 N.am      5 UNK        -0.4737 
     65 C         -46.7323  -27.1294   10.4201 C.2       4 UNK         0.5027 
     66 O         -47.6324  -26.3049   10.5907 O.2       4 UNK        -0.5211 
     67 CA        -46.2637  -27.4574    8.9937 C.3       4 UNK         0.0297 
     68 CB        -47.3244  -28.2996    8.2676 C.3       4 UNK        -0.1993 
     69 N         -45.9699  -26.2535    8.2099 N.am      4 UNK        -0.4486 
     70 C         -45.0145  -25.3606    8.5097 C.2       3 UNK         0.4961 
     71 O         -44.2927  -25.4411    9.5049 O.2       3 UNK        -0.5105 
     72 CA        -44.7775  -24.2018    7.5293 C.3       3 UNK         0.0299 
     73 CB        -43.7446  -24.6172    6.4678 C.3       3 UNK        -0.1972 
     74 N         -45.9964  -23.7540    6.8494 N.am      3 UNK        -0.4305 
     75 C         -46.5344  -22.5312    6.9772 C.2       2 UNK         0.5006 
     76 O         -46.1281  -21.6893    7.7798 O.2       2 UNK        -0.5106 
     77 CA        -47.6861  -22.1372    6.0295 C.3       2 UNK         0.0296 
     78 CB        -47.1869  -21.1341    4.9752 C.3       2 UNK        -0.2002 
     79 N         -48.2947  -23.2757    5.3398 N.am      2 UNK        -0.4032 
     80 C         -49.2323  -24.0712    5.8721 C.2       1 UNK         0.5000 
     81 O         -49.7418  -23.8581    6.9730 O.2       1 UNK        -0.5238 
     82 H82       -47.0450  -26.7212    2.3313 H         1 UNK         0.0889 
     83 H83       -46.2530  -27.7784    3.5019 H         1 UNK         0.0889 
     84 H84       -45.6174  -26.1582    3.2054 H         1 UNK         0.0889 
     85 H85       -48.9321  -25.8407    3.1385 H         1 UNK         0.3028 
     86 H86       -50.4917  -24.9594    4.4228 H         1 UNK         0.0864 
     87 H87       -51.0448  -26.0648    6.5481 H         1 UNK         0.0720 
     88 H88       -49.4526  -26.7699    6.6559 H         1 UNK         0.0720 
     89 H89       -53.0506  -28.7284    4.9352 H         1 UNK         0.0814 
     90 H90       -53.0135  -27.0693    5.4731 H         1 UNK         0.0814 
     91 H91       -51.0042  -29.8825    7.0011 H         1 UNK         0.1469 
     92 H92       -53.3479  -29.9691   10.5834 H         1 UNK         0.1381 
     93 H93       -54.4656  -27.3731    7.3645 H         1 UNK         0.1206 
     94 H94       -55.9086  -29.0865    9.9188 H         1 UNK         0.0813 
     95 H95       -55.8602  -27.4674    9.2715 H         1 UNK         0.0813 
     96 H96       -56.7715  -27.2034   12.9799 H         1 UNK         0.0638 
     97 H97       -57.2203  -28.2718   11.6953 H         1 UNK         0.0638 
     98 H98       -57.1559  -29.4864   13.7879 H         1 UNK         0.0568 
     99 H99       -54.4102  -31.9938   12.2678 H         1 UNK         0.3450 
    100 H100      -53.9689  -30.7427   13.4063 H         1 UNK         0.3450 
    101 H101      -54.7635  -28.0754   14.3748 H         1 UNK         0.2987 
    102 H102      -54.4770  -29.6398   17.6129 H         1 UNK         0.0766 
    103 H103      -52.1100  -29.0555   17.1172 H         1 UNK         0.0798 
    104 H104      -52.4852  -28.8899   15.4054 H         1 UNK         0.0798 
    105 H105      -52.6113  -30.4599   16.1879 H         1 UNK         0.0798 
    106 H106      -53.7044  -27.0586   16.5951 H         1 UNK         0.3198 
    107 H107      -56.6523  -25.3241   17.4591 H         1 UNK         0.0843 
    108 H108      -54.1835  -25.4166   19.2816 H         1 UNK         0.0831 
    109 H109      -55.8447  -25.6614   19.8010 H         1 UNK         0.0831 
    110 H110      -55.3490  -24.0944   19.1855 H         1 UNK         0.0831 
    111 H111      -53.9401  -24.4639   17.0169 H         1 UNK         0.3133 
    112 H112      -53.7373  -24.9515   13.6027 H         1 UNK         0.0566 
    113 H113      -53.6226  -22.5115   13.2048 H         1 UNK         0.0814 
    114 H114      -55.2939  -22.9951   13.4251 H         1 UNK         0.0814 
    115 H115      -54.4404  -22.1894   14.7352 H         1 UNK         0.0814 
    116 H116      -52.0772  -23.2497   14.9017 H         1 UNK         0.3091 
    117 H117      -50.3920  -23.7715   16.5953 H         1 UNK         0.0702 
    118 H118      -50.2045  -25.8953   17.8522 H         1 UNK         0.0785 
    119 H119      -48.6508  -25.4812   17.1419 H         1 UNK         0.0785 
    120 H120      -49.6466  -26.7418   16.4173 H         1 UNK         0.0785 
    121 H121      -49.2079  -25.3755   14.3967 H         1 UNK         0.2998 
    122 H122      -49.1800  -22.5420   12.1623 H         1 UNK         0.0697 
    123 H123      -47.0908  -24.4672   13.3131 H         1 UNK         0.0825 
    124 H124      -46.9692  -22.7163   13.2576 H         1 UNK         0.0825 
    125 H125      -46.9627  -23.6398   11.7620 H         1 UNK         0.0825 
    126 H126      -48.8362  -25.2990   11.6122 H         1 UNK         0.3029 
    127 H127      -52.2609  -26.1225   10.9864 H         1 UNK         0.0897 
    128 H128      -51.2591  -26.7804    8.8102 H         1 UNK         0.0792 
    129 H129      -49.8982  -25.6933    9.0845 H         1 UNK         0.0792 
    130 H130      -51.5218  -25.0438    8.8906 H         1 UNK         0.0792 
    131 H131      -49.5660  -27.3315   10.9103 H         1 UNK         0.3086 
    132 H132      -50.1356  -29.2230   13.8427 H         1 UNK         0.0583 
    133 H133      -49.9219  -31.2228   12.5787 H         1 UNK         0.1020 
    134 H134      -51.4237  -30.5245   12.0666 H         1 UNK         0.1020 
    135 H135      -50.7970  -31.7319    8.5887 H         1 UNK         0.0694 
    136 H136      -51.7334  -31.7950   10.0528 H         1 UNK         0.0694 
    137 H137      -48.0350  -29.3179   11.9523 H         1 UNK         0.2989 
    138 H138      -46.1204  -26.5659   13.0720 H         1 UNK         0.1055 
    139 H139      -45.6345  -28.3694   14.7382 H         1 UNK         0.0806 
    140 H140      -44.4269  -28.3218   13.4663 H         1 UNK         0.0806 
    141 H141      -45.6698  -29.5738   13.4579 H         1 UNK         0.0806 
    142 H142      -45.4184  -28.4726   11.1779 H         1 UNK         0.3061 
    143 H143      -45.3412  -28.0394    9.0445 H         1 UNK         0.0734 
    144 H144      -47.0641  -28.4654    7.2220 H         1 UNK         0.0832 
    145 H145      -47.4244  -29.2798    8.7340 H         1 UNK         0.0832 
    146 H146      -48.3059  -27.8267    8.3008 H         1 UNK         0.0832 
    147 H147      -46.4771  -26.1498    7.3340 H         1 UNK         0.3156 
    148 H148      -44.3428  -23.3836    8.1073 H         1 UNK         0.0589 
    149 H149      -43.4960  -23.7838    5.8105 H         1 UNK         0.0808 
    150 H150      -42.8159  -24.9497    6.9337 H         1 UNK         0.0808 
    151 H151      -44.1104  -25.4362    5.8468 H         1 UNK         0.0808 
    152 H152      -46.4245  -24.4232    6.2166 H         1 UNK         0.3098 
    153 H153      -48.4475  -21.6388    6.6337 H         1 UNK         0.0720 
    154 H154      -48.0003  -20.7946    4.3335 H         1 UNK         0.0791 
    155 H155      -46.4138  -21.5669    4.3389 H         1 UNK         0.0791 
    156 H156      -46.7605  -20.2484    5.4485 H         1 UNK         0.0791 
    157 H157      -47.9316  -23.5081    4.4266 H         1 UNK         0.3028 
@<TRIPOS>BOND
     1    1    2 1    
     2    1   82 1    
     3    1   83 1    
     4    1   84 1    
     5    2    3 2    
     6    2    4 am   BACKBONE|DICT|INTERRES
     7    4    5 1    
     8    4   85 1    
     9    5    6 1    
    10    5   80 1    
    11    5   86 1    
    12    6    7 1    
    13    6   87 1    
    14    6   88 1    
    15    7    8 1    
    16    8    9 1    
    17    8   89 1    
    18    8   90 1    
    19    9   10 ar   
    20    9   14 ar   
    21   10   11 ar   
    22   10   91 1    
    23   11   12 ar   
    24   11   58 1    
    25   12   13 ar   
    26   12   92 1    
    27   13   14 ar   
    28   13   15 1    
    29   14   93 1    
    30   15   16 1    
    31   15   94 1    
    32   15   95 1    
    33   16   17 1    
    34   17   18 1    
    35   17   96 1    
    36   17   97 1    
    37   18   19 1    
    38   18   22 1    
    39   18   98 1    
    40   19   20 am   BACKBONE|DICT|INTERRES
    41   19   21 2    
    42   20   99 1    
    43   20  100 1    
    44   22   23 am   BACKBONE|DICT|INTERRES
    45   22  101 1    
    46   23   24 2    
    47   23   25 1    
    48   25   26 1    
    49   25   27 1    
    50   25  102 1    
    51   26  103 1    
    52   26  104 1    
    53   26  105 1    
    54   27   28 am   BACKBONE|DICT|INTERRES
    55   27  106 1    
    56   28   29 2    
    57   28   30 1    
    58   30   31 1    
    59   30   32 1    
    60   30  107 1    
    61   31  108 1    
    62   31  109 1    
    63   31  110 1    
    64   32   33 am   BACKBONE|DICT|INTERRES
    65   32  111 1    
    66   33   34 2    
    67   33   35 1    
    68   35   36 1    
    69   35   37 1    
    70   35  112 1    
    71   36  113 1    
    72   36  114 1    
    73   36  115 1    
    74   37   38 am   BACKBONE|DICT|INTERRES
    75   37  116 1    
    76   38   39 2    
    77   38   40 1    
    78   40   41 1    
    79   40   42 1    
    80   40  117 1    
    81   41  118 1    
    82   41  119 1    
    83   41  120 1    
    84   42   43 am   BACKBONE|DICT|INTERRES
    85   42  121 1    
    86   43   44 2    
    87   43   45 1    
    88   45   46 1    
    89   45   47 1    
    90   45  122 1    
    91   46  123 1    
    92   46  124 1    
    93   46  125 1    
    94   47   48 am   BACKBONE|DICT|INTERRES
    95   47  126 1    
    96   48   49 2    
    97   48   50 1    
    98   50   51 1    
    99   50   52 1    
   100   50  127 1    
   101   51  128 1    
   102   51  129 1    
   103   51  130 1    
   104   52   53 am   BACKBONE|DICT|INTERRES
   105   52  131 1    
   106   53   54 2    
   107   53   55 1    
   108   55   56 1    
   109   55   59 1    
   110   55  132 1    
   111   56   57 1    
   112   56  133 1    
   113   56  134 1    
   114   57   58 1    
   115   58  135 1    
   116   58  136 1    
   117   59   60 am   BACKBONE|DICT|INTERRES
   118   59  137 1    
   119   60   61 2    
   120   60   62 1    
   121   62   63 1    
   122   62   64 1    
   123   62  138 1    
   124   63  139 1    
   125   63  140 1    
   126   63  141 1    
   127   64   65 am   BACKBONE|DICT|INTERRES
   128   64  142 1    
   129   65   66 2    
   130   65   67 1    
   131   67   68 1    
   132   67   69 1    
   133   67  143 1    
   134   68  144 1    
   135   68  145 1    
   136   68  146 1    
   137   69   70 am   BACKBONE|DICT|INTERRES
   138   69  147 1    
   139   70   71 2    
   140   70   72 1    
   141   72   73 1    
   142   72   74 1    
   143   72  148 1    
   144   73  149 1    
   145   73  150 1    
   146   73  151 1    
   147   74   75 am   BACKBONE|DICT|INTERRES
   148   74  152 1    
   149   75   76 2    
   150   75   77 1    
   151   77   78 1    
   152   77   79 1    
   153   77  153 1    
   154   78  154 1    
   155   78  155 1    
   156   78  156 1    
   157   79   80 am   BACKBONE|DICT|INTERRES
   158   79  157 1    
   159   80   81 2    
@<TRIPOS>SUBSTRUCTURE
     1 UNK         1 GROUP             0       ****    0 ROOT    
