@<TRIPOS>MOLECULE
3R207
157   159    1
SMALL
USER_CHARGES


@<TRIPOS>ATOM
      1 CA        -54.2957  -25.9084    9.7098 C.3       0 UNK        -0.1975 
      2 C         -52.8524  -26.3285    9.4745 C.2       0 UNK         0.4852 
      3 O         -52.1013  -26.4866   10.4329 O.2       0 UNK        -0.5216 
      4 N         -52.4554  -26.5085    8.2065 N.am      1 UNK        -0.4461 
      5 CA        -51.1007  -26.9121    7.8088 C.3       1 UNK         0.0864 
      6 C6        -51.0557  -27.3126    6.3109 C.3       14 UNK        -0.0898 
      7 S7        -49.5351  -28.2080    5.8410 S.3       14 UNK        -0.2598 
      8 C8        -50.0791  -29.9470    5.9141 C.3       14 UNK         0.0286 
      9 C9        -50.5164  -30.3438    7.3168 C.ar      14 UNK        -0.0844 
     10 C10       -49.5664  -30.5042    8.3286 C.ar      14 UNK        -0.0881 
     11 C11       -49.9616  -30.8028    9.6361 C.ar      14 UNK        -0.0643 
     12 C12       -51.3189  -30.9832    9.9191 C.ar      14 UNK        -0.0930 
     13 C13       -52.2754  -30.8589    8.9075 C.ar      14 UNK        -0.0827 
     14 C14       -51.8702  -30.5305    7.6105 C.ar      14 UNK        -0.1249 
     15 C15       -53.7461  -31.0901    9.2108 C.3       14 UNK         0.0141 
     16 S16       -54.5229  -29.5976    9.8926 S.3       14 UNK        -0.2313 
     17 C17       -56.2718  -30.0907    9.7965 C.3       14 UNK        -0.0915 
     18 CA        -57.2372  -28.9873   10.2990 C.3       13 UNK         0.0968 
     19 C         -58.7110  -29.3722    9.9724 C.2       13 UNK         0.5732 
     20 N         -59.5470  -29.7052   10.9491 N.am      13 UNK        -0.7310 
     21 O         -59.1022  -29.3642    8.8076 O.2       13 UNK        -0.5035 
     22 N         -56.9827  -28.6465   11.7092 N.am      13 UNK        -0.4233 
     23 C         -57.4803  -27.5734   12.3378 C.2       13 UNK         0.4989 
     24 O         -58.1676  -26.7115   11.7887 O.2       13 UNK        -0.4996 
     25 CA        -57.1794  -27.4453   13.8399 C.3       12 UNK         0.0216 
     26 CB        -58.2795  -28.1319   14.6667 C.3       12 UNK        -0.1964 
     27 N         -55.8726  -27.9878   14.2243 N.am      12 UNK        -0.4276 
     28 C         -54.7099  -27.3646   13.9955 C.2       12 UNK         0.5020 
     29 O         -54.6126  -26.2935   13.3920 O.2       12 UNK        -0.5489 
     30 CA        -53.4441  -28.0361   14.5581 C.3       11 UNK         0.0294 
     31 CB        -52.5980  -28.6398   13.4266 C.3       11 UNK        -0.2019 
     32 N         -52.6501  -27.0618   15.3131 N.am      11 UNK        -0.4493 
     33 C         -53.0395  -26.5483   16.4903 C.2       11 UNK         0.4932 
     34 O         -53.9997  -26.9838   17.1298 O.2       11 UNK        -0.5029 
     35 CA        -52.2692  -25.3250   17.0223 C.3       10 UNK         0.0280 
     36 CB        -52.5457  -25.0290   18.5128 C.3       10 UNK        -0.1976 
     37 N         -50.8317  -25.3584   16.7457 N.am      10 UNK        -0.4242 
     38 C         -49.9102  -26.1956   17.2482 C.2       10 UNK         0.5072 
     39 O         -50.1715  -27.1114   18.0296 O.2       10 UNK        -0.5224 
     40 CA        -48.4402  -25.9795   16.8226 C.3       9 UNK         0.0343 
     41 CB        -47.8546  -27.2531   16.1875 C.3       9 UNK        -0.2003 
     42 N         -48.2650  -24.8566   15.8956 N.am      9 UNK        -0.4272 
     43 C         -48.2171  -23.5632   16.2477 C.2       9 UNK         0.4988 
     44 O         -48.1921  -23.1717   17.4143 O.2       9 UNK        -0.5108 
     45 CA        -48.2593  -22.5297   15.1071 C.3       8 UNK         0.0248 
     46 CB        -46.8397  -22.0939   14.7093 C.3       8 UNK        -0.2001 
     47 N         -48.9799  -23.0239   13.9279 N.am      8 UNK        -0.4140 
     48 C         -50.3107  -23.1970   13.8724 C.2       8 UNK         0.5028 
     49 O         -51.0724  -22.9025   14.7925 O.2       8 UNK        -0.5428 
     50 CA        -50.8811  -23.8715   12.6115 C.3       7 UNK         0.0264 
     51 CB        -51.1523  -22.8374   11.5082 C.3       7 UNK        -0.1988 
     52 N         -50.0027  -24.9226   12.0957 N.am      7 UNK        -0.4454 
     53 C         -49.7240  -26.0630   12.7449 C.2       7 UNK         0.5027 
     54 O         -50.2385  -26.3688   13.8208 O.2       7 UNK        -0.5083 
     55 CA        -48.6355  -26.9767   12.1444 C.3       6 UNK         0.0844 
     56 C56       -49.2440  -28.2177   11.4536 C.3       14 UNK        -0.0967 
     57 S57       -47.9524  -29.4081   10.9623 S.3       14 UNK        -0.2604 
     58 C58       -48.9222  -30.9335   10.7409 C.3       14 UNK         0.0134 
     59 N         -47.7170  -26.2390   11.2690 N.am      6 UNK        -0.4116 
     60 C         -46.8154  -25.3454   11.6998 C.2       5 UNK         0.5034 
     61 O         -46.7021  -25.0317   12.8856 O.2       5 UNK        -0.5045 
     62 CA        -45.9402  -24.6383   10.6451 C.3       5 UNK         0.0224 
     63 CB        -44.5177  -24.3399   11.1635 C.3       5 UNK        -0.1978 
     64 N         -45.9076  -25.3173    9.3429 N.am      5 UNK        -0.4737 
     65 C         -45.3944  -26.5234    9.0499 C.2       4 UNK         0.5027 
     66 O         -44.7750  -27.2162    9.8568 O.2       4 UNK        -0.5211 
     67 CA        -45.6330  -27.0673    7.6276 C.3       4 UNK         0.0297 
     68 CB        -46.3153  -28.4437    7.6829 C.3       4 UNK        -0.1993 
     69 N         -46.4750  -26.1723    6.8306 N.am      4 UNK        -0.4486 
     70 C         -46.0293  -25.2945    5.9221 C.2       3 UNK         0.4961 
     71 O         -44.8469  -25.1841    5.5976 O.2       3 UNK        -0.5105 
     72 CA        -47.0735  -24.3627    5.2750 C.3       3 UNK         0.0299 
     73 CB        -47.5544  -24.9486    3.9378 C.3       3 UNK        -0.1972 
     74 N         -48.2368  -24.0912    6.1262 N.am      3 UNK        -0.4305 
     75 C         -48.1999  -23.4583    7.3086 C.2       2 UNK         0.5006 
     76 O         -47.1756  -22.9865    7.8004 O.2       2 UNK        -0.5106 
     77 CA        -49.5095  -23.4027    8.1164 C.3       2 UNK         0.0296 
     78 CB        -50.2820  -22.1109    7.8075 C.3       2 UNK        -0.2002 
     79 N         -50.3862  -24.5612    7.9088 N.am      2 UNK        -0.4032 
     80 C         -50.0450  -25.8377    8.1467 C.2       1 UNK         0.5000 
     81 O         -48.9490  -26.1714    8.6036 O.2       1 UNK        -0.5238 
     82 H82       -54.8968  -25.9844    8.8042 H         1 UNK         0.0889 
     83 H83       -54.3324  -24.8791   10.0651 H         1 UNK         0.0889 
     84 H84       -54.7491  -26.5433   10.4712 H         1 UNK         0.0889 
     85 H85       -53.1204  -26.3814    7.4570 H         1 UNK         0.3028 
     86 H86       -50.8533  -27.7934    8.4031 H         1 UNK         0.0864 
     87 H87       -51.1525  -26.4352    5.6689 H         1 UNK         0.0720 
     88 H88       -51.9102  -27.9464    6.0689 H         1 UNK         0.0720 
     89 H89       -49.2560  -30.5887    5.5970 H         1 UNK         0.0814 
     90 H90       -50.8842  -30.1048    5.1948 H         1 UNK         0.0814 
     91 H91       -48.5180  -30.3663    8.1055 H         1 UNK         0.1469 
     92 H92       -51.6345  -31.2215   10.9256 H         1 UNK         0.1381 
     93 H93       -52.6110  -30.4140    6.8313 H         1 UNK         0.1206 
     94 H94       -54.2702  -31.3924    8.3028 H         1 UNK         0.0813 
     95 H95       -53.8583  -31.9123    9.9192 H         1 UNK         0.0813 
     96 H96       -56.4103  -31.0105   10.3678 H         1 UNK         0.0638 
     97 H97       -56.4847  -30.3382    8.7545 H         1 UNK         0.0638 
     98 H98       -57.0341  -28.0864    9.7167 H         1 UNK         0.0568 
     99 H99       -60.4981  -29.9483   10.7212 H         1 UNK         0.3450 
    100 H100      -59.2379  -29.7199   11.9068 H         1 UNK         0.3450 
    101 H101      -56.4163  -29.2986   12.2292 H         1 UNK         0.2987 
    102 H102      -57.1926  -26.3806   14.0844 H         1 UNK         0.0766 
    103 H103      -58.1332  -27.9670   15.7345 H         1 UNK         0.0798 
    104 H104      -58.3076  -29.2085   14.4940 H         1 UNK         0.0798 
    105 H105      -59.2637  -27.7350   14.4130 H         1 UNK         0.0798 
    106 H106      -55.8711  -28.8528   14.7464 H         1 UNK         0.3198 
    107 H107      -53.7306  -28.8429   15.2363 H         1 UNK         0.0843 
    108 H108      -52.3014  -27.8812   12.7017 H         1 UNK         0.0831 
    109 H109      -53.1564  -29.4030   12.8831 H         1 UNK         0.0831 
    110 H110      -51.6941  -29.1090   13.8146 H         1 UNK         0.0831 
    111 H111      -51.8430  -26.6668   14.8359 H         1 UNK         0.3133 
    112 H112      -52.6525  -24.4761   16.4547 H         1 UNK         0.0566 
    113 H113      -52.0043  -24.1447   18.8490 H         1 UNK         0.0814 
    114 H114      -53.6064  -24.8412   18.6837 H         1 UNK         0.0814 
    115 H115      -52.2584  -25.8634   19.1531 H         1 UNK         0.0814 
    116 H116      -50.5165  -24.6579   16.0867 H         1 UNK         0.3091 
    117 H117      -47.8718  -25.7680   17.7306 H         1 UNK         0.0702 
    118 H118      -46.8327  -27.0954   15.8420 H         1 UNK         0.0785 
    119 H119      -48.4493  -27.5945   15.3411 H         1 UNK         0.0785 
    120 H120      -47.8291  -28.0695   16.9103 H         1 UNK         0.0785 
    121 H121      -48.2578  -25.0849   14.9110 H         1 UNK         0.2998 
    122 H122      -48.7883  -21.6500   15.4804 H         1 UNK         0.0697 
    123 H123      -46.2358  -22.9326   14.3630 H         1 UNK         0.0825 
    124 H124      -46.3186  -21.6523   15.5598 H         1 UNK         0.0825 
    125 H125      -46.8596  -21.3437   13.9186 H         1 UNK         0.0825 
    126 H126      -48.4142  -23.3322   13.1500 H         1 UNK         0.3029 
    127 H127      -51.8313  -24.3384   12.8833 H         1 UNK         0.0897 
    128 H128      -50.2403  -22.3316   11.1895 H         1 UNK         0.0792 
    129 H129      -51.8442  -22.0702   11.8582 H         1 UNK         0.0792 
    130 H130      -51.6058  -23.3052   10.6340 H         1 UNK         0.0792 
    131 H131      -49.5788  -24.7742   11.1930 H         1 UNK         0.3086 
    132 H132      -48.0459  -27.3381   12.9893 H         1 UNK         0.0583 
    133 H133      -49.9392  -28.7244   12.1242 H         1 UNK         0.1020 
    134 H134      -49.8204  -27.9328   10.5728 H         1 UNK         0.1020 
    135 H135      -48.2427  -31.7497   10.4924 H         1 UNK         0.0694 
    136 H136      -49.3892  -31.1989   11.6907 H         1 UNK         0.0694 
    137 H137      -47.8051  -26.4165   10.2736 H         1 UNK         0.2989 
    138 H138      -46.4240  -23.6774   10.4630 H         1 UNK         0.1055 
    139 H139      -44.5488  -23.6917   12.0402 H         1 UNK         0.0806 
    140 H140      -43.9185  -23.8313   10.4084 H         1 UNK         0.0806 
    141 H141      -43.9916  -25.2493   11.4549 H         1 UNK         0.0806 
    142 H142      -46.3696  -24.8152    8.5935 H         1 UNK         0.3061 
    143 H143      -44.6553  -27.1885    7.1570 H         1 UNK         0.0734 
    144 H144      -46.4575  -28.8584    6.6850 H         1 UNK         0.0832 
    145 H145      -45.7212  -29.1604    8.2514 H         1 UNK         0.0832 
    146 H146      -47.2929  -28.3777    8.1610 H         1 UNK         0.0832 
    147 H147      -47.4621  -26.1832    7.0628 H         1 UNK         0.3156 
    148 H148      -46.5812  -23.4089    5.0740 H         1 UNK         0.0589 
    149 H149      -48.0771  -25.8962    4.0762 H         1 UNK         0.0808 
    150 H150      -48.2278  -24.2641    3.4218 H         1 UNK         0.0808 
    151 H151      -46.7128  -25.1366    3.2693 H         1 UNK         0.0808 
    152 H152      -49.1253  -24.4427    5.8010 H         1 UNK         0.3098 
    153 H153      -49.2319  -23.3907    9.1717 H         1 UNK         0.0720 
    154 H154      -51.1649  -22.0125    8.4392 H         1 UNK         0.0791 
    155 H155      -50.6075  -22.0727    6.7672 H         1 UNK         0.0791 
    156 H156      -49.6600  -21.2326    7.9866 H         1 UNK         0.0791 
    157 H157      -51.3122  -24.3734    7.5523 H         1 UNK         0.3028 
@<TRIPOS>BOND
     1    1    2 1    
     2    1   82 1    
     3    1   83 1    
     4    1   84 1    
     5    2    3 2    
     6    2    4 am   BACKBONE|DICT|INTERRES
     7    4    5 1    
     8    4   85 1    
     9    5    6 1    
    10    5   80 1    
    11    5   86 1    
    12    6    7 1    
    13    6   87 1    
    14    6   88 1    
    15    7    8 1    
    16    8    9 1    
    17    8   89 1    
    18    8   90 1    
    19    9   10 ar   
    20    9   14 ar   
    21   10   11 ar   
    22   10   91 1    
    23   11   12 ar   
    24   11   58 1    
    25   12   13 ar   
    26   12   92 1    
    27   13   14 ar   
    28   13   15 1    
    29   14   93 1    
    30   15   16 1    
    31   15   94 1    
    32   15   95 1    
    33   16   17 1    
    34   17   18 1    
    35   17   96 1    
    36   17   97 1    
    37   18   19 1    
    38   18   22 1    
    39   18   98 1    
    40   19   20 am   BACKBONE|DICT|INTERRES
    41   19   21 2    
    42   20   99 1    
    43   20  100 1    
    44   22   23 am   BACKBONE|DICT|INTERRES
    45   22  101 1    
    46   23   24 2    
    47   23   25 1    
    48   25   26 1    
    49   25   27 1    
    50   25  102 1    
    51   26  103 1    
    52   26  104 1    
    53   26  105 1    
    54   27   28 am   BACKBONE|DICT|INTERRES
    55   27  106 1    
    56   28   29 2    
    57   28   30 1    
    58   30   31 1    
    59   30   32 1    
    60   30  107 1    
    61   31  108 1    
    62   31  109 1    
    63   31  110 1    
    64   32   33 am   BACKBONE|DICT|INTERRES
    65   32  111 1    
    66   33   34 2    
    67   33   35 1    
    68   35   36 1    
    69   35   37 1    
    70   35  112 1    
    71   36  113 1    
    72   36  114 1    
    73   36  115 1    
    74   37   38 am   BACKBONE|DICT|INTERRES
    75   37  116 1    
    76   38   39 2    
    77   38   40 1    
    78   40   41 1    
    79   40   42 1    
    80   40  117 1    
    81   41  118 1    
    82   41  119 1    
    83   41  120 1    
    84   42   43 am   BACKBONE|DICT|INTERRES
    85   42  121 1    
    86   43   44 2    
    87   43   45 1    
    88   45   46 1    
    89   45   47 1    
    90   45  122 1    
    91   46  123 1    
    92   46  124 1    
    93   46  125 1    
    94   47   48 am   BACKBONE|DICT|INTERRES
    95   47  126 1    
    96   48   49 2    
    97   48   50 1    
    98   50   51 1    
    99   50   52 1    
   100   50  127 1    
   101   51  128 1    
   102   51  129 1    
   103   51  130 1    
   104   52   53 am   BACKBONE|DICT|INTERRES
   105   52  131 1    
   106   53   54 2    
   107   53   55 1    
   108   55   56 1    
   109   55   59 1    
   110   55  132 1    
   111   56   57 1    
   112   56  133 1    
   113   56  134 1    
   114   57   58 1    
   115   58  135 1    
   116   58  136 1    
   117   59   60 am   BACKBONE|DICT|INTERRES
   118   59  137 1    
   119   60   61 2    
   120   60   62 1    
   121   62   63 1    
   122   62   64 1    
   123   62  138 1    
   124   63  139 1    
   125   63  140 1    
   126   63  141 1    
   127   64   65 am   BACKBONE|DICT|INTERRES
   128   64  142 1    
   129   65   66 2    
   130   65   67 1    
   131   67   68 1    
   132   67   69 1    
   133   67  143 1    
   134   68  144 1    
   135   68  145 1    
   136   68  146 1    
   137   69   70 am   BACKBONE|DICT|INTERRES
   138   69  147 1    
   139   70   71 2    
   140   70   72 1    
   141   72   73 1    
   142   72   74 1    
   143   72  148 1    
   144   73  149 1    
   145   73  150 1    
   146   73  151 1    
   147   74   75 am   BACKBONE|DICT|INTERRES
   148   74  152 1    
   149   75   76 2    
   150   75   77 1    
   151   77   78 1    
   152   77   79 1    
   153   77  153 1    
   154   78  154 1    
   155   78  155 1    
   156   78  156 1    
   157   79   80 am   BACKBONE|DICT|INTERRES
   158   79  157 1    
   159   80   81 2    
@<TRIPOS>SUBSTRUCTURE
     1 UNK         1 GROUP             0       ****    0 ROOT    
