@<TRIPOS>MOLECULE
3R207
157   159    1
SMALL
USER_CHARGES


@<TRIPOS>ATOM
      1 CA        -44.8629  -28.7889    8.6977 C.3       0 UNK        -0.1975 
      2 C         -45.7472  -27.9583    7.7815 C.2       0 UNK         0.4852 
      3 O         -45.5160  -26.7572    7.6351 O.2       0 UNK        -0.5216 
      4 N         -46.7404  -28.5956    7.1433 N.am      1 UNK        -0.4461 
      5 CA        -47.7624  -27.9808    6.2800 C.3       1 UNK         0.0864 
      6 C6        -48.8189  -27.1795    7.0894 C.3       14 UNK        -0.0898 
      7 S7        -49.7455  -28.2650    8.2330 S.3       14 UNK        -0.2598 
      8 C8        -51.3616  -28.4014    7.3998 C.3       14 UNK         0.0286 
      9 C9        -52.3763  -27.4276    7.9823 C.ar      14 UNK        -0.0844 
     10 C10       -52.2030  -26.0494    7.8319 C.ar      14 UNK        -0.0881 
     11 C11       -53.0975  -25.1494    8.4166 C.ar      14 UNK        -0.0643 
     12 C12       -54.2082  -25.6403    9.1115 C.ar      14 UNK        -0.0930 
     13 C13       -54.4221  -27.0178    9.2290 C.ar      14 UNK        -0.0827 
     14 C14       -53.4950  -27.9047    8.6719 C.ar      14 UNK        -0.1249 
     15 C15       -55.6770  -27.5471    9.9128 C.3       14 UNK         0.0141 
     16 S16       -55.2944  -28.6260   11.3264 S.3       14 UNK        -0.2313 
     17 C17       -56.9674  -29.0406   11.9253 C.3       14 UNK        -0.0915 
     18 CA        -57.2241  -28.5197   13.3694 C.3       13 UNK         0.0968 
     19 C         -58.7108  -28.6728   13.8167 C.2       13 UNK         0.5732 
     20 N         -58.9981  -28.9158   15.0907 N.am      13 UNK        -0.7310 
     21 O         -59.6247  -28.5319   13.0073 O.2       13 UNK        -0.5035 
     22 N         -56.2361  -29.0183   14.3435 N.am      13 UNK        -0.4233 
     23 C         -56.0522  -30.2915   14.7220 C.2       13 UNK         0.4989 
     24 O         -56.6962  -31.2451   14.2836 O.2       13 UNK        -0.4996 
     25 CA        -54.9684  -30.5503   15.7844 C.3       12 UNK         0.0216 
     26 CB        -53.7117  -31.1491   15.1378 C.3       12 UNK        -0.1964 
     27 N         -54.6005  -29.3449   16.5362 N.am      12 UNK        -0.4276 
     28 C         -55.3517  -28.8191   17.5161 C.2       12 UNK         0.5020 
     29 O         -56.4308  -29.3018   17.8643 O.2       12 UNK        -0.5489 
     30 CA        -54.8580  -27.5253   18.1932 C.3       11 UNK         0.0294 
     31 CB        -55.1743  -27.4914   19.7039 C.3       11 UNK        -0.2019 
     32 N         -53.4487  -27.2066   17.9356 N.am      11 UNK        -0.4493 
     33 C         -52.3558  -27.8691   18.3514 C.2       11 UNK         0.4932 
     34 O         -52.3960  -28.8769   19.0572 O.2       11 UNK        -0.5029 
     35 CA        -50.9835  -27.3362   17.8894 C.3       10 UNK         0.0280 
     36 CB        -50.1326  -28.4585   17.2671 C.3       10 UNK        -0.1976 
     37 N         -51.1161  -26.2500   16.9158 N.am      10 UNK        -0.4242 
     38 C         -51.1444  -24.9421   17.2115 C.2       10 UNK         0.5072 
     39 O         -50.9489  -24.4909   18.3402 O.2       10 UNK        -0.5224 
     40 CA        -51.4861  -23.9703   16.0653 C.3       9 UNK         0.0343 
     41 CB        -50.2083  -23.3233   15.5073 C.3       9 UNK        -0.2003 
     42 N         -52.2376  -24.6061   14.9758 N.am      9 UNK        -0.4272 
     43 C         -53.5145  -25.0116   15.0823 C.2       9 UNK         0.4988 
     44 O         -54.1913  -24.8499   16.0970 O.2       9 UNK        -0.5108 
     45 CA        -54.1314  -25.7858   13.9016 C.3       8 UNK         0.0248 
     46 CB        -54.8756  -24.8314   12.9555 C.3       8 UNK        -0.2001 
     47 N         -53.1583  -26.5660   13.1369 N.am      8 UNK        -0.4140 
     48 C         -52.3768  -27.5369   13.6305 C.2       8 UNK         0.5028 
     49 O         -52.4844  -27.9708   14.7792 O.2       8 UNK        -0.5428 
     50 CA        -51.2350  -28.0417   12.7235 C.3       7 UNK         0.0264 
     51 CB        -51.5651  -29.4016   12.0918 C.3       7 UNK        -0.1988 
     52 N         -50.8703  -27.1027   11.6559 N.am      7 UNK        -0.4454 
     53 C         -50.3640  -25.8772   11.8510 C.2       7 UNK         0.5027 
     54 O         -50.1706  -25.3820   12.9625 O.2       7 UNK        -0.5083 
     55 CA        -50.1132  -25.0333   10.5909 C.3       6 UNK         0.0844 
     56 C56       -51.1285  -23.8639   10.5269 C.3       14 UNK        -0.0967 
     57 S57       -51.2021  -23.1315    8.8580 S.3       14 UNK        -0.2604 
     58 C58       -52.8644  -23.6463    8.2991 C.3       14 UNK         0.0134 
     59 N         -48.7362  -24.5458   10.4942 N.am      6 UNK        -0.4116 
     60 C         -47.6080  -25.2612   10.6009 C.2       5 UNK         0.5034 
     61 O         -47.5595  -26.4684   10.8424 O.2       5 UNK        -0.5045 
     62 CA        -46.3163  -24.4841   10.3045 C.3       5 UNK         0.0224 
     63 CB        -45.0433  -25.2367   10.7327 C.3       5 UNK        -0.1978 
     64 N         -46.2574  -24.2126    8.8691 N.am      5 UNK        -0.4737 
     65 C         -46.8298  -23.1598    8.2688 C.2       4 UNK         0.5027 
     66 O         -47.3971  -22.2617    8.8934 O.2       4 UNK        -0.5211 
     67 CA        -46.8092  -23.1236    6.7278 C.3       4 UNK         0.0297 
     68 CB        -46.8464  -21.6891    6.1595 C.3       4 UNK        -0.1993 
     69 N         -45.7169  -23.9075    6.1407 N.am      4 UNK        -0.4486 
     70 C         -44.3961  -23.6854    6.2475 C.2       3 UNK         0.4961 
     71 O         -43.9103  -22.7022    6.8079 O.2       3 UNK        -0.5105 
     72 CA        -43.4444  -24.7439    5.6554 C.3       3 UNK         0.0299 
     73 CB        -42.4913  -25.2857    6.7362 C.3       3 UNK        -0.1972 
     74 N         -44.1664  -25.8706    5.0599 N.am      3 UNK        -0.4305 
     75 C         -44.5144  -25.9654    3.7688 C.2       2 UNK         0.5006 
     76 O         -44.1951  -25.1397    2.9128 O.2       2 UNK        -0.5106 
     77 CA        -45.3759  -27.1744    3.3526 C.3       2 UNK         0.0296 
     78 CB        -44.4985  -28.2571    2.7028 C.3       2 UNK        -0.2002 
     79 N         -46.1473  -27.7753    4.4469 N.am      2 UNK        -0.4032 
     80 C         -47.1350  -27.1686    5.1228 C.2       1 UNK         0.5000 
     81 O         -47.4998  -26.0131    4.8961 O.2       1 UNK        -0.5238 
     82 H82       -43.8155  -28.5281    8.5484 H         1 UNK         0.0889 
     83 H83       -44.9759  -29.8567    8.5118 H         1 UNK         0.0889 
     84 H84       -45.1198  -28.5943    9.7385 H         1 UNK         0.0889 
     85 H85       -46.8655  -29.5846    7.3094 H         1 UNK         0.3028 
     86 H86       -48.2857  -28.8051    5.7925 H         1 UNK         0.0864 
     87 H87       -48.3422  -26.3876    7.6697 H         1 UNK         0.0720 
     88 H88       -49.5192  -26.6818    6.4181 H         1 UNK         0.0720 
     89 H89       -51.7147  -29.4275    7.5129 H         1 UNK         0.0814 
     90 H90       -51.2601  -28.2372    6.3263 H         1 UNK         0.0814 
     91 H91       -51.3491  -25.6679    7.2912 H         1 UNK         0.1469 
     92 H92       -54.9167  -24.9481    9.5457 H         1 UNK         0.1381 
     93 H93       -53.6528  -28.9701    8.7727 H         1 UNK         0.1206 
     94 H94       -56.3085  -26.7255   10.2541 H         1 UNK         0.0813 
     95 H95       -56.2644  -28.1077    9.1843 H         1 UNK         0.0813 
     96 H96       -57.6997  -28.6246   11.2316 H         1 UNK         0.0638 
     97 H97       -57.0926  -30.1230   11.8762 H         1 UNK         0.0638 
     98 H98       -57.0726  -27.4402   13.3428 H         1 UNK         0.0568 
     99 H99       -59.9628  -28.9996   15.3693 H         1 UNK         0.3450 
    100 H100      -58.2640  -29.0324   15.7720 H         1 UNK         0.3450 
    101 H101      -55.6510  -28.3186   14.7710 H         1 UNK         0.2987 
    102 H102      -55.3673  -31.2861   16.4861 H         1 UNK         0.0766 
    103 H103      -53.9380  -32.0964   14.6466 H         1 UNK         0.0798 
    104 H104      -52.9330  -31.3413   15.8762 H         1 UNK         0.0798 
    105 H105      -53.3044  -30.4811   14.3823 H         1 UNK         0.0798 
    106 H106      -53.7418  -28.8778   16.2614 H         1 UNK         0.3198 
    107 H107      -55.4289  -26.7200   17.7285 H         1 UNK         0.0843 
    108 H108      -54.8291  -26.5645   20.1617 H         1 UNK         0.0831 
    109 H109      -54.7111  -28.3229   20.2355 H         1 UNK         0.0831 
    110 H110      -56.2488  -27.5562   19.8801 H         1 UNK         0.0831 
    111 H111      -53.3080  -26.3874   17.3564 H         1 UNK         0.3133 
    112 H112      -50.4623  -26.9729   18.7772 H         1 UNK         0.0566 
    113 H113      -49.1647  -28.0842   16.9334 H         1 UNK         0.0814 
    114 H114      -50.6277  -28.9181   16.4113 H         1 UNK         0.0814 
    115 H115      -49.9382  -29.2501   17.9919 H         1 UNK         0.0814 
    116 H116      -51.3245  -26.5385   15.9674 H         1 UNK         0.3091 
    117 H117      -52.1094  -23.1768   16.4834 H         1 UNK         0.0702 
    118 H118      -50.4314  -22.6392   14.6884 H         1 UNK         0.0785 
    119 H119      -49.5034  -24.0699   15.1401 H         1 UNK         0.0785 
    120 H120      -49.6958  -22.7487   16.2800 H         1 UNK         0.0785 
    121 H121      -51.7110  -24.8161   14.1334 H         1 UNK         0.2998 
    122 H122      -54.8562  -26.4853   14.3189 H         1 UNK         0.0697 
    123 H123      -54.1977  -24.1246   12.4755 H         1 UNK         0.0825 
    124 H124      -55.6229  -24.2496   13.4970 H         1 UNK         0.0825 
    125 H125      -55.4010  -25.3792   12.1737 H         1 UNK         0.0825 
    126 H126      -53.0271  -26.3089   12.1703 H         1 UNK         0.3029 
    127 H127      -50.3568  -28.1676   13.3604 H         1 UNK         0.0897 
    128 H128      -52.4675  -29.3597   11.4825 H         1 UNK         0.0792 
    129 H129      -51.7124  -30.1636   12.8556 H         1 UNK         0.0792 
    130 H130      -50.7513  -29.7492   11.4547 H         1 UNK         0.0792 
    131 H131      -50.9966  -27.4290   10.7066 H         1 UNK         0.3086 
    132 H132      -50.2651  -25.6789    9.7260 H         1 UNK         0.0583 
    133 H133      -52.1306  -24.1883   10.8126 H         1 UNK         0.1020 
    134 H134      -50.8614  -23.0835   11.2424 H         1 UNK         0.1020 
    135 H135      -53.6093  -23.0936    8.8737 H         1 UNK         0.0694 
    136 H136      -52.9947  -23.3481    7.2580 H         1 UNK         0.0694 
    137 H137      -48.6401  -23.5735   10.2291 H         1 UNK         0.2989 
    138 H138      -46.3490  -23.5456   10.8631 H         1 UNK         0.1055 
    139 H139      -44.1497  -24.6450   10.5338 H         1 UNK         0.0806 
    140 H140      -44.9349  -26.1864   10.2108 H         1 UNK         0.0806 
    141 H141      -45.0603  -25.4525   11.8017 H         1 UNK         0.0806 
    142 H142      -45.8793  -24.9606    8.2919 H         1 UNK         0.3061 
    143 H143      -47.7281  -23.6203    6.4128 H         1 UNK         0.0734 
    144 H144      -46.0012  -21.0930    6.5040 H         1 UNK         0.0832 
    145 H145      -46.8349  -21.6930    5.0697 H         1 UNK         0.0832 
    146 H146      -47.7542  -21.1706    6.4706 H         1 UNK         0.0832 
    147 H147      -46.0196  -24.7503    5.6639 H         1 UNK         0.3156 
    148 H148      -42.8404  -24.2476    4.8932 H         1 UNK         0.0589 
    149 H149      -41.8094  -26.0313    6.3272 H         1 UNK         0.0808 
    150 H150      -41.8794  -24.4857    7.1551 H         1 UNK         0.0808 
    151 H151      -43.0341  -25.7443    7.5635 H         1 UNK         0.0808 
    152 H152      -44.5135  -26.5616    5.7143 H         1 UNK         0.3098 
    153 H153      -46.0881  -26.8186    2.6050 H         1 UNK         0.0720 
    154 H154      -43.9338  -27.8502    1.8626 H         1 UNK         0.0791 
    155 H155      -45.1016  -29.0788    2.3159 H         1 UNK         0.0791 
    156 H156      -43.7777  -28.6709    3.4093 H         1 UNK         0.0791 
    157 H157      -45.8949  -28.7160    4.7150 H         1 UNK         0.3028 
@<TRIPOS>BOND
     1    1    2 1    
     2    1   82 1    
     3    1   83 1    
     4    1   84 1    
     5    2    3 2    
     6    2    4 am   BACKBONE|DICT|INTERRES
     7    4    5 1    
     8    4   85 1    
     9    5    6 1    
    10    5   80 1    
    11    5   86 1    
    12    6    7 1    
    13    6   87 1    
    14    6   88 1    
    15    7    8 1    
    16    8    9 1    
    17    8   89 1    
    18    8   90 1    
    19    9   10 ar   
    20    9   14 ar   
    21   10   11 ar   
    22   10   91 1    
    23   11   12 ar   
    24   11   58 1    
    25   12   13 ar   
    26   12   92 1    
    27   13   14 ar   
    28   13   15 1    
    29   14   93 1    
    30   15   16 1    
    31   15   94 1    
    32   15   95 1    
    33   16   17 1    
    34   17   18 1    
    35   17   96 1    
    36   17   97 1    
    37   18   19 1    
    38   18   22 1    
    39   18   98 1    
    40   19   20 am   BACKBONE|DICT|INTERRES
    41   19   21 2    
    42   20   99 1    
    43   20  100 1    
    44   22   23 am   BACKBONE|DICT|INTERRES
    45   22  101 1    
    46   23   24 2    
    47   23   25 1    
    48   25   26 1    
    49   25   27 1    
    50   25  102 1    
    51   26  103 1    
    52   26  104 1    
    53   26  105 1    
    54   27   28 am   BACKBONE|DICT|INTERRES
    55   27  106 1    
    56   28   29 2    
    57   28   30 1    
    58   30   31 1    
    59   30   32 1    
    60   30  107 1    
    61   31  108 1    
    62   31  109 1    
    63   31  110 1    
    64   32   33 am   BACKBONE|DICT|INTERRES
    65   32  111 1    
    66   33   34 2    
    67   33   35 1    
    68   35   36 1    
    69   35   37 1    
    70   35  112 1    
    71   36  113 1    
    72   36  114 1    
    73   36  115 1    
    74   37   38 am   BACKBONE|DICT|INTERRES
    75   37  116 1    
    76   38   39 2    
    77   38   40 1    
    78   40   41 1    
    79   40   42 1    
    80   40  117 1    
    81   41  118 1    
    82   41  119 1    
    83   41  120 1    
    84   42   43 am   BACKBONE|DICT|INTERRES
    85   42  121 1    
    86   43   44 2    
    87   43   45 1    
    88   45   46 1    
    89   45   47 1    
    90   45  122 1    
    91   46  123 1    
    92   46  124 1    
    93   46  125 1    
    94   47   48 am   BACKBONE|DICT|INTERRES
    95   47  126 1    
    96   48   49 2    
    97   48   50 1    
    98   50   51 1    
    99   50   52 1    
   100   50  127 1    
   101   51  128 1    
   102   51  129 1    
   103   51  130 1    
   104   52   53 am   BACKBONE|DICT|INTERRES
   105   52  131 1    
   106   53   54 2    
   107   53   55 1    
   108   55   56 1    
   109   55   59 1    
   110   55  132 1    
   111   56   57 1    
   112   56  133 1    
   113   56  134 1    
   114   57   58 1    
   115   58  135 1    
   116   58  136 1    
   117   59   60 am   BACKBONE|DICT|INTERRES
   118   59  137 1    
   119   60   61 2    
   120   60   62 1    
   121   62   63 1    
   122   62   64 1    
   123   62  138 1    
   124   63  139 1    
   125   63  140 1    
   126   63  141 1    
   127   64   65 am   BACKBONE|DICT|INTERRES
   128   64  142 1    
   129   65   66 2    
   130   65   67 1    
   131   67   68 1    
   132   67   69 1    
   133   67  143 1    
   134   68  144 1    
   135   68  145 1    
   136   68  146 1    
   137   69   70 am   BACKBONE|DICT|INTERRES
   138   69  147 1    
   139   70   71 2    
   140   70   72 1    
   141   72   73 1    
   142   72   74 1    
   143   72  148 1    
   144   73  149 1    
   145   73  150 1    
   146   73  151 1    
   147   74   75 am   BACKBONE|DICT|INTERRES
   148   74  152 1    
   149   75   76 2    
   150   75   77 1    
   151   77   78 1    
   152   77   79 1    
   153   77  153 1    
   154   78  154 1    
   155   78  155 1    
   156   78  156 1    
   157   79   80 am   BACKBONE|DICT|INTERRES
   158   79  157 1    
   159   80   81 2    
@<TRIPOS>SUBSTRUCTURE
     1 UNK         1 GROUP             0       ****    0 ROOT    
