@<TRIPOS>MOLECULE
3R207
157   159    1
SMALL
USER_CHARGES


@<TRIPOS>ATOM
      1 CA        -45.0482  -27.5629    3.2245 C.3       0 UNK        -0.1975 
      2 C         -46.4954  -27.7782    3.6413 C.2       0 UNK         0.4852 
      3 O         -47.4083  -27.4040    2.9031 O.2       0 UNK        -0.5216 
      4 N         -46.7158  -28.3772    4.8194 N.am      1 UNK        -0.4461 
      5 CA        -48.0352  -28.6091    5.4121 C.3       1 UNK         0.0864 
      6 C6        -47.9831  -29.7686    6.4404 C.3       14 UNK        -0.0898 
      7 S7        -49.6377  -30.3264    6.9807 S.3       14 UNK        -0.2598 
      8 C8        -49.6329  -29.8098    8.7288 C.3       14 UNK         0.0286 
      9 C9        -50.9681  -29.2277    9.1611 C.ar      14 UNK        -0.0844 
     10 C10       -51.4182  -28.0363    8.5898 C.ar      14 UNK        -0.0881 
     11 C11       -52.5919  -27.4288    9.0375 C.ar      14 UNK        -0.0643 
     12 C12       -53.3393  -28.0395   10.0476 C.ar      14 UNK        -0.0930 
     13 C13       -52.9037  -29.2366   10.6240 C.ar      14 UNK        -0.0827 
     14 C14       -51.7184  -29.8291   10.1751 C.ar      14 UNK        -0.1249 
     15 C15       -53.6925  -29.8686   11.7576 C.3       14 UNK         0.0141 
     16 S16       -55.2054  -30.6678   11.1475 S.3       14 UNK        -0.2313 
     17 C17       -55.6898  -31.6522   12.6026 C.3       14 UNK        -0.0915 
     18 CA        -56.8604  -31.0266   13.4037 C.3       13 UNK         0.0968 
     19 C         -57.4107  -32.0527   14.4396 C.2       13 UNK         0.5732 
     20 N         -57.2186  -31.8592   15.7396 N.am      13 UNK        -0.7310 
     21 O         -58.0282  -33.0422   14.0529 O.2       13 UNK        -0.5035 
     22 N         -56.5039  -29.7118   13.9688 N.am      13 UNK        -0.4233 
     23 C         -57.3922  -28.8432   14.4691 C.2       13 UNK         0.4989 
     24 O         -58.6121  -29.0122   14.4398 O.2       13 UNK        -0.4996 
     25 CA        -56.8278  -27.5829   15.1402 C.3       12 UNK         0.0216 
     26 CB        -56.3399  -27.8980   16.5639 C.3       12 UNK        -0.1964 
     27 N         -55.7532  -26.9321   14.3856 N.am      12 UNK        -0.4276 
     28 C         -55.9525  -26.2102   13.2704 C.2       12 UNK         0.5020 
     29 O         -57.0284  -26.1858   12.6697 O.2       12 UNK        -0.5489 
     30 CA        -54.7819  -25.3378   12.7536 C.3       11 UNK         0.0294 
     31 CB        -55.2737  -24.0692   12.0271 C.3       11 UNK        -0.2019 
     32 N         -53.7954  -24.9796   13.7796 N.am      11 UNK        -0.4493 
     33 C         -54.0084  -24.3838   14.9639 C.2       11 UNK         0.4932 
     34 O         -55.0908  -23.9056   15.3069 O.2       11 UNK        -0.5029 
     35 CA        -52.8206  -24.3668   15.9511 C.3       10 UNK         0.0280 
     36 CB        -53.2832  -24.3864   17.4229 C.3       10 UNK        -0.1976 
     37 N         -51.8353  -25.4338   15.7175 N.am      10 UNK        -0.4242 
     38 C         -52.0502  -26.7602   15.6728 C.2       10 UNK         0.5072 
     39 O         -53.1562  -27.2735   15.8546 O.2       10 UNK        -0.5224 
     40 CA        -50.8663  -27.6758   15.2984 C.3       9 UNK         0.0343 
     41 CB        -51.1928  -28.4789   14.0275 C.3       9 UNK        -0.2003 
     42 N         -49.6081  -26.9556   15.0867 N.am      9 UNK        -0.4272 
     43 C         -48.7926  -26.5337   16.0629 C.2       9 UNK         0.4988 
     44 O         -48.9737  -26.7708   17.2574 O.2       9 UNK        -0.5108 
     45 CA        -47.5945  -25.6644   15.6396 C.3       8 UNK         0.0248 
     46 CB        -46.4082  -26.5472   15.2217 C.3       8 UNK        -0.2001 
     47 N         -47.9142  -24.7221   14.5611 N.am      8 UNK        -0.4140 
     48 C         -48.8288  -23.7441   14.6436 C.2       8 UNK         0.5028 
     49 O         -49.4809  -23.5026   15.6590 O.2       8 UNK        -0.5428 
     50 CA        -49.1148  -22.9403   13.3641 C.3       7 UNK         0.0264 
     51 CB        -48.0432  -21.8636   13.1305 C.3       7 UNK        -0.1988 
     52 N         -49.2367  -23.7928   12.1793 N.am      7 UNK        -0.4454 
     53 C         -50.1903  -24.7224   12.0088 C.2       7 UNK         0.5027 
     54 O         -51.0885  -24.9448   12.8209 O.2       7 UNK        -0.5083 
     55 CA        -50.0915  -25.5842   10.7382 C.3       6 UNK         0.0844 
     56 C56       -50.6708  -24.8524    9.4999 C.3       14 UNK        -0.0967 
     57 S57       -52.4935  -24.7118    9.5297 S.3       14 UNK        -0.2604 
     58 C58       -53.0189  -26.0896    8.4605 C.3       14 UNK         0.0134 
     59 N         -48.7126  -26.0315   10.5203 N.am      6 UNK        -0.4116 
     60 C         -48.0571  -26.8940   11.3125 C.2       5 UNK         0.5034 
     61 O         -48.5689  -27.4631   12.2758 O.2       5 UNK        -0.5045 
     62 CA        -46.5602  -27.1183   11.0246 C.3       5 UNK         0.0224 
     63 CB        -46.3517  -28.2625   10.0227 C.3       5 UNK        -0.1978 
     64 N         -45.8797  -25.9167   10.5357 N.am      5 UNK        -0.4737 
     65 C         -45.7056  -24.8010   11.2568 C.2       4 UNK         0.5027 
     66 O         -46.0435  -24.6955   12.4342 O.2       4 UNK        -0.5211 
     67 CA        -45.1039  -23.5820   10.5342 C.3       4 UNK         0.0297 
     68 CB        -43.5816  -23.5399   10.7372 C.3       4 UNK        -0.1993 
     69 N         -45.4091  -23.5170    9.0985 N.am      4 UNK        -0.4486 
     70 C         -46.6401  -23.4906    8.5678 C.2       3 UNK         0.4961 
     71 O         -47.6685  -23.5494    9.2460 O.2       3 UNK        -0.5105 
     72 CA        -46.7532  -23.4154    7.0364 C.3       3 UNK         0.0299 
     73 CB        -45.4631  -23.7999    6.2803 C.3       3 UNK        -0.1972 
     74 N         -47.8424  -24.2892    6.6150 N.am      3 UNK        -0.4305 
     75 C         -48.7004  -24.0719    5.6161 C.2       2 UNK         0.5006 
     76 O         -48.6578  -23.0854    4.8784 O.2       2 UNK        -0.5106 
     77 CA        -49.7768  -25.1582    5.4059 C.3       2 UNK         0.0296 
     78 CB        -50.7743  -24.7987    4.2891 C.3       2 UNK        -0.2002 
     79 N         -49.1987  -26.4740    5.1170 N.am      2 UNK        -0.4032 
     80 C         -48.5775  -27.2824    5.9872 C.2       1 UNK         0.5000 
     81 O         -48.3890  -26.9907    7.1721 O.2       1 UNK        -0.5238 
     82 H82       -44.3482  -27.9600    3.9595 H         1 UNK         0.0889 
     83 H83       -44.8477  -26.4985    3.1053 H         1 UNK         0.0889 
     84 H84       -44.8552  -28.0554    2.2718 H         1 UNK         0.0889 
     85 H85       -45.9274  -28.6449    5.3915 H         1 UNK         0.3028 
     86 H86       -48.7119  -28.9236    4.6138 H         1 UNK         0.0864 
     87 H87       -47.5006  -30.6334    5.9820 H         1 UNK         0.0720 
     88 H88       -47.3579  -29.5109    7.2957 H         1 UNK         0.0720 
     89 H89       -48.8797  -29.0417    8.8955 H         1 UNK         0.0814 
     90 H90       -49.3501  -30.6592    9.3522 H         1 UNK         0.0814 
     91 H91       -50.8323  -27.5642    7.8159 H         1 UNK         0.1469 
     92 H92       -54.2523  -27.5770   10.3944 H         1 UNK         0.1381 
     93 H93       -51.3688  -30.7454   10.6308 H         1 UNK         0.1206 
     94 H94       -53.0745  -30.6012   12.2791 H         1 UNK         0.0813 
     95 H95       -53.9555  -29.1039   12.4892 H         1 UNK         0.0813 
     96 H96       -54.8272  -31.8185   13.2501 H         1 UNK         0.0638 
     97 H97       -55.9716  -32.6373   12.2255 H         1 UNK         0.0638 
     98 H98       -57.6786  -30.8561   12.7011 H         1 UNK         0.0568 
     99 H99       -56.7108  -31.0560   16.0708 H         1 UNK         0.3450 
    100 H100      -57.5845  -32.5312   16.3955 H         1 UNK         0.3450 
    101 H101      -55.5215  -29.5014   14.0445 H         1 UNK         0.2987 
    102 H102      -57.6489  -26.8675   15.2269 H         1 UNK         0.0766 
    103 H103      -55.4978  -28.5912   16.5620 H         1 UNK         0.0798 
    104 H104      -56.0217  -26.9922   17.0809 H         1 UNK         0.0798 
    105 H105      -57.1347  -28.3484   17.1602 H         1 UNK         0.0798 
    106 H106      -54.8364  -26.9136   14.8257 H         1 UNK         0.3198 
    107 H107      -54.2429  -25.9463   12.0281 H         1 UNK         0.0843 
    108 H108      -55.8803  -24.3249   11.1576 H         1 UNK         0.0831 
    109 H109      -54.4377  -23.4683   11.6694 H         1 UNK         0.0831 
    110 H110      -55.8832  -23.4426   12.6791 H         1 UNK         0.0831 
    111 H111      -52.8334  -25.2347   13.5641 H         1 UNK         0.3133 
    112 H112      -52.2963  -23.4265   15.7770 H         1 UNK         0.0566 
    113 H113      -52.4335  -24.3583   18.1050 H         1 UNK         0.0814 
    114 H114      -53.9079  -23.5221   17.6512 H         1 UNK         0.0814 
    115 H115      -53.8667  -25.2795   17.6497 H         1 UNK         0.0814 
    116 H116      -50.8978  -25.1012   15.5229 H         1 UNK         0.3091 
    117 H117      -50.7325  -28.3821   16.1201 H         1 UNK         0.0702 
    118 H118      -50.3740  -29.1454   13.7562 H         1 UNK         0.0785 
    119 H119      -51.3861  -27.8261   13.1747 H         1 UNK         0.0785 
    120 H120      -52.0765  -29.0997   14.1756 H         1 UNK         0.0785 
    121 H121      -49.3548  -26.7687   14.1223 H         1 UNK         0.2998 
    122 H122      -47.2913  -25.0752   16.5074 H         1 UNK         0.0697 
    123 H123      -46.6493  -27.1605   14.3533 H         1 UNK         0.0825 
    124 H124      -46.1210  -27.2228   16.0286 H         1 UNK         0.0825 
    125 H125      -45.5328  -25.9461   14.9746 H         1 UNK         0.0825 
    126 H126      -47.3682  -24.8052   13.7048 H         1 UNK         0.3029 
    127 H127      -50.0741  -22.4364   13.5023 H         1 UNK         0.0897 
    128 H128      -48.2688  -21.2628   12.2492 H         1 UNK         0.0792 
    129 H129      -47.9876  -21.1825   13.9808 H         1 UNK         0.0792 
    130 H130      -47.0516  -22.2955   12.9974 H         1 UNK         0.0792 
    131 H131      -48.5371  -23.6823   11.4560 H         1 UNK         0.3086 
    132 H132      -50.6865  -26.4825   10.9141 H         1 UNK         0.0583 
    133 H133      -50.2529  -23.8490    9.4029 H         1 UNK         0.1020 
    134 H134      -50.3744  -25.3760    8.5933 H         1 UNK         0.1020 
    135 H135      -54.1046  -26.0634    8.3568 H         1 UNK         0.0694 
    136 H136      -52.6113  -25.9507    7.4579 H         1 UNK         0.0694 
    137 H137      -48.1961  -25.5508    9.7956 H         1 UNK         0.2989 
    138 H138      -46.0915  -27.4066   11.9680 H         1 UNK         0.1055 
    139 H139      -46.8705  -29.1663   10.3454 H         1 UNK         0.0806 
    140 H140      -45.2958  -28.5154    9.9259 H         1 UNK         0.0806 
    141 H141      -46.7234  -27.9994    9.0329 H         1 UNK         0.0806 
    142 H142      -45.5659  -25.9210    9.5763 H         1 UNK         0.3061 
    143 H143      -45.5337  -22.6910   10.9962 H         1 UNK         0.0734 
    144 H144      -43.3295  -23.5638   11.7986 H         1 UNK         0.0832 
    145 H145      -43.0866  -24.3902   10.2663 H         1 UNK         0.0832 
    146 H146      -43.1497  -22.6274   10.3258 H         1 UNK         0.0832 
    147 H147      -44.6194  -23.4713    8.4706 H         1 UNK         0.3156 
    148 H148      -47.0060  -22.3809    6.7958 H         1 UNK         0.0589 
    149 H149      -45.1303  -24.8083    6.5307 H         1 UNK         0.0808 
    150 H150      -45.6189  -23.7664    5.2016 H         1 UNK         0.0808 
    151 H151      -44.6480  -23.1091    6.4986 H         1 UNK         0.0808 
    152 H152      -47.9600  -25.1480    7.1476 H         1 UNK         0.3098 
    153 H153      -50.3448  -25.2313    6.3333 H         1 UNK         0.0720 
    154 H154      -51.5645  -25.5453    4.2076 H         1 UNK         0.0791 
    155 H155      -50.2829  -24.7219    3.3182 H         1 UNK         0.0791 
    156 H156      -51.2567  -23.8408    4.4886 H         1 UNK         0.0791 
    157 H157      -49.1850  -26.7497    4.1426 H         1 UNK         0.3028 
@<TRIPOS>BOND
     1    1    2 1    
     2    1   82 1    
     3    1   83 1    
     4    1   84 1    
     5    2    3 2    
     6    2    4 am   BACKBONE|DICT|INTERRES
     7    4    5 1    
     8    4   85 1    
     9    5    6 1    
    10    5   80 1    
    11    5   86 1    
    12    6    7 1    
    13    6   87 1    
    14    6   88 1    
    15    7    8 1    
    16    8    9 1    
    17    8   89 1    
    18    8   90 1    
    19    9   10 ar   
    20    9   14 ar   
    21   10   11 ar   
    22   10   91 1    
    23   11   12 ar   
    24   11   58 1    
    25   12   13 ar   
    26   12   92 1    
    27   13   14 ar   
    28   13   15 1    
    29   14   93 1    
    30   15   16 1    
    31   15   94 1    
    32   15   95 1    
    33   16   17 1    
    34   17   18 1    
    35   17   96 1    
    36   17   97 1    
    37   18   19 1    
    38   18   22 1    
    39   18   98 1    
    40   19   20 am   BACKBONE|DICT|INTERRES
    41   19   21 2    
    42   20   99 1    
    43   20  100 1    
    44   22   23 am   BACKBONE|DICT|INTERRES
    45   22  101 1    
    46   23   24 2    
    47   23   25 1    
    48   25   26 1    
    49   25   27 1    
    50   25  102 1    
    51   26  103 1    
    52   26  104 1    
    53   26  105 1    
    54   27   28 am   BACKBONE|DICT|INTERRES
    55   27  106 1    
    56   28   29 2    
    57   28   30 1    
    58   30   31 1    
    59   30   32 1    
    60   30  107 1    
    61   31  108 1    
    62   31  109 1    
    63   31  110 1    
    64   32   33 am   BACKBONE|DICT|INTERRES
    65   32  111 1    
    66   33   34 2    
    67   33   35 1    
    68   35   36 1    
    69   35   37 1    
    70   35  112 1    
    71   36  113 1    
    72   36  114 1    
    73   36  115 1    
    74   37   38 am   BACKBONE|DICT|INTERRES
    75   37  116 1    
    76   38   39 2    
    77   38   40 1    
    78   40   41 1    
    79   40   42 1    
    80   40  117 1    
    81   41  118 1    
    82   41  119 1    
    83   41  120 1    
    84   42   43 am   BACKBONE|DICT|INTERRES
    85   42  121 1    
    86   43   44 2    
    87   43   45 1    
    88   45   46 1    
    89   45   47 1    
    90   45  122 1    
    91   46  123 1    
    92   46  124 1    
    93   46  125 1    
    94   47   48 am   BACKBONE|DICT|INTERRES
    95   47  126 1    
    96   48   49 2    
    97   48   50 1    
    98   50   51 1    
    99   50   52 1    
   100   50  127 1    
   101   51  128 1    
   102   51  129 1    
   103   51  130 1    
   104   52   53 am   BACKBONE|DICT|INTERRES
   105   52  131 1    
   106   53   54 2    
   107   53   55 1    
   108   55   56 1    
   109   55   59 1    
   110   55  132 1    
   111   56   57 1    
   112   56  133 1    
   113   56  134 1    
   114   57   58 1    
   115   58  135 1    
   116   58  136 1    
   117   59   60 am   BACKBONE|DICT|INTERRES
   118   59  137 1    
   119   60   61 2    
   120   60   62 1    
   121   62   63 1    
   122   62   64 1    
   123   62  138 1    
   124   63  139 1    
   125   63  140 1    
   126   63  141 1    
   127   64   65 am   BACKBONE|DICT|INTERRES
   128   64  142 1    
   129   65   66 2    
   130   65   67 1    
   131   67   68 1    
   132   67   69 1    
   133   67  143 1    
   134   68  144 1    
   135   68  145 1    
   136   68  146 1    
   137   69   70 am   BACKBONE|DICT|INTERRES
   138   69  147 1    
   139   70   71 2    
   140   70   72 1    
   141   72   73 1    
   142   72   74 1    
   143   72  148 1    
   144   73  149 1    
   145   73  150 1    
   146   73  151 1    
   147   74   75 am   BACKBONE|DICT|INTERRES
   148   74  152 1    
   149   75   76 2    
   150   75   77 1    
   151   77   78 1    
   152   77   79 1    
   153   77  153 1    
   154   78  154 1    
   155   78  155 1    
   156   78  156 1    
   157   79   80 am   BACKBONE|DICT|INTERRES
   158   79  157 1    
   159   80   81 2    
@<TRIPOS>SUBSTRUCTURE
     1 UNK         1 GROUP             0       ****    0 ROOT    
