@<TRIPOS>MOLECULE
3R207
157   159    1
SMALL
USER_CHARGES


@<TRIPOS>ATOM
      1 CA        -44.1324  -27.0609    6.9695 C.3       0 UNK        -0.1975 
      2 C         -45.5860  -27.3525    6.6258 C.2       0 UNK         0.4852 
      3 O         -46.4351  -27.2721    7.5113 O.2       0 UNK        -0.5216 
      4 N         -45.8514  -27.6762    5.3508 N.am      1 UNK        -0.4461 
      5 CA        -47.1470  -27.9942    4.7276 C.3       1 UNK         0.0864 
      6 C6        -47.7299  -29.3794    5.1587 C.3       14 UNK        -0.0898 
      7 S7        -48.6489  -29.4176    6.7393 S.3       14 UNK        -0.2598 
      8 C8        -50.2547  -30.1458    6.2776 C.3       14 UNK         0.0286 
      9 C9        -51.2345  -30.0033    7.4330 C.ar      14 UNK        -0.0844 
     10 C10       -51.0273  -30.7152    8.6174 C.ar      14 UNK        -0.0881 
     11 C11       -51.8293  -30.4775    9.7362 C.ar      14 UNK        -0.0643 
     12 C12       -52.8618  -29.5391    9.6588 C.ar      14 UNK        -0.0930 
     13 C13       -53.1052  -28.8494    8.4681 C.ar      14 UNK        -0.0827 
     14 C14       -52.2990  -29.1012    7.3530 C.ar      14 UNK        -0.1249 
     15 C15       -54.1542  -27.7476    8.4135 C.3       14 UNK         0.0141 
     16 S16       -55.8502  -28.3631    8.1598 S.3       14 UNK        -0.2313 
     17 C17       -56.4112  -28.8456    9.8303 C.3       14 UNK        -0.0915 
     18 CA        -56.9357  -27.6456   10.6663 C.3       13 UNK         0.0968 
     19 C         -57.8704  -28.1215   11.8113 C.2       13 UNK         0.5732 
     20 N         -59.1479  -28.3245   11.5203 N.am      13 UNK        -0.7310 
     21 O         -57.4484  -28.3401   12.9462 O.2       13 UNK        -0.5035 
     22 N         -55.8245  -26.8471   11.1939 N.am      13 UNK        -0.4233 
     23 C         -55.8882  -25.5625   11.5513 C.2       13 UNK         0.4989 
     24 O         -56.8837  -24.8528   11.3961 O.2       13 UNK        -0.4996 
     25 CA        -54.6192  -24.9923   12.2168 C.3       12 UNK         0.0216 
     26 CB        -54.6493  -23.4572   12.3376 C.3       12 UNK        -0.1964 
     27 N         -54.4062  -25.5691   13.5466 N.am      12 UNK        -0.4276 
     28 C         -53.9683  -26.8104   13.7947 C.2       12 UNK         0.5020 
     29 O         -53.6695  -27.6098   12.9050 O.2       12 UNK        -0.5489 
     30 CA        -53.8309  -27.1993   15.2765 C.3       11 UNK         0.0294 
     31 CB        -53.2320  -28.6030   15.4831 C.3       11 UNK        -0.2019 
     32 N         -52.9968  -26.2196   15.9744 N.am      11 UNK        -0.4493 
     33 C         -53.4555  -25.2214   16.7406 C.2       11 UNK         0.4932 
     34 O         -54.6557  -25.0273   16.9380 O.2       11 UNK        -0.5029 
     35 CA        -52.4291  -24.2410   17.3446 C.3       10 UNK         0.0280 
     36 CB        -52.8352  -23.7503   18.7508 C.3       10 UNK        -0.1976 
     37 N         -51.0402  -24.7182   17.3228 N.am      10 UNK        -0.4242 
     38 C         -50.4996  -25.7318   18.0205 C.2       10 UNK         0.5072 
     39 O         -51.1305  -26.4139   18.8292 O.2       10 UNK        -0.5224 
     40 CA        -49.0101  -26.0547   17.7741 C.3       9 UNK         0.0343 
     41 CB        -48.7829  -27.5704   17.6228 C.3       9 UNK        -0.2003 
     42 N         -48.4969  -25.3864   16.5765 N.am      9 UNK        -0.4272 
     43 C         -47.7196  -24.2944   16.5589 C.2       9 UNK         0.4988 
     44 O         -47.2660  -23.7620   17.5722 O.2       9 UNK        -0.5108 
     45 CA        -47.4096  -23.6667   15.1828 C.3       8 UNK         0.0248 
     46 CB        -46.0248  -24.1194   14.6927 C.3       8 UNK        -0.2001 
     47 N         -48.4065  -23.9607   14.1460 N.am      8 UNK        -0.4140 
     48 C         -49.7070  -23.6378   14.2124 C.2       8 UNK         0.5028 
     49 O         -50.1961  -22.9681   15.1215 O.2       8 UNK        -0.5428 
     50 CA        -50.6382  -24.2417   13.1477 C.3       7 UNK         0.0264 
     51 CB        -50.7520  -23.3126   11.9313 C.3       7 UNK        -0.1988 
     52 N         -50.2282  -25.5824   12.7165 N.am      7 UNK        -0.4454 
     53 C         -50.1322  -26.6519   13.5211 C.2       7 UNK         0.5027 
     54 O         -50.4253  -26.6176   14.7167 O.2       7 UNK        -0.5083 
     55 CA        -49.5655  -27.9534   12.9276 C.3       6 UNK         0.0844 
     56 C56       -50.6752  -28.8218   12.3008 C.3       14 UNK        -0.0967 
     57 S57       -50.0661  -30.4838   11.8609 S.3       14 UNK        -0.2604 
     58 C58       -51.5337  -31.1876   11.0469 C.3       14 UNK         0.0134 
     59 N         -48.4943  -27.6580   11.9754 N.am      6 UNK        -0.4116 
     60 C         -47.1971  -27.5898   12.2950 C.2       5 UNK         0.5034 
     61 O         -46.7544  -27.7880   13.4270 O.2       5 UNK        -0.5045 
     62 CA        -46.2187  -27.2308   11.1633 C.3       5 UNK         0.0224 
     63 CB        -45.7194  -28.5066   10.4669 C.3       5 UNK        -0.1978 
     64 N         -46.7663  -26.3070   10.1628 N.am      5 UNK        -0.4737 
     65 C         -47.1612  -25.0558   10.4311 C.2       4 UNK         0.5027 
     66 O         -47.1461  -24.5627   11.5595 O.2       4 UNK        -0.5211 
     67 CA        -47.6884  -24.2123    9.2577 C.3       4 UNK         0.0297 
     68 CB        -46.5321  -23.7413    8.3608 C.3       4 UNK        -0.1993 
     69 N         -48.7412  -24.8143    8.4272 N.am      4 UNK        -0.4486 
     70 C         -49.8138  -25.5033    8.8507 C.2       3 UNK         0.4961 
     71 O         -49.9543  -25.9425    9.9913 O.2       3 UNK        -0.5105 
     72 CA        -50.9692  -25.6862    7.8594 C.3       3 UNK         0.0299 
     73 CB        -51.9901  -24.5447    8.0592 C.3       3 UNK        -0.1972 
     74 N         -50.5044  -25.7722    6.4729 N.am      3 UNK        -0.4305 
     75 C         -51.2528  -26.0070    5.3880 C.2       2 UNK         0.5006 
     76 O         -52.4791  -26.1115    5.4018 O.2       2 UNK        -0.5106 
     77 CA        -50.5174  -26.1944    4.0477 C.3       2 UNK         0.0296 
     78 CB        -50.2059  -24.8377    3.3845 C.3       2 UNK        -0.2002 
     79 N         -49.3291  -27.0584    4.1259 N.am      2 UNK        -0.4032 
     80 C         -48.1691  -26.8314    4.7604 C.2       1 UNK         0.5000 
     81 O         -47.9170  -25.7723    5.3440 O.2       1 UNK        -0.5238 
     82 H82       -43.5140  -26.9596    6.0779 H         1 UNK         0.0889 
     83 H83       -43.7234  -27.8664    7.5783 H         1 UNK         0.0889 
     84 H84       -44.0590  -26.1339    7.5376 H         1 UNK         0.0889 
     85 H85       -45.0769  -27.6803    4.7022 H         1 UNK         0.3028 
     86 H86       -46.8941  -28.0924    3.6706 H         1 UNK         0.0864 
     87 H87       -48.3809  -29.7619    4.3714 H         1 UNK         0.0720 
     88 H88       -46.9218  -30.1091    5.2293 H         1 UNK         0.0720 
     89 H89       -50.1238  -31.1992    6.0261 H         1 UNK         0.0814 
     90 H90       -50.6402  -29.6507    5.3852 H         1 UNK         0.0814 
     91 H91       -50.1983  -31.4060    8.6903 H         1 UNK         0.1469 
     92 H92       -53.4420  -29.3160   10.5425 H         1 UNK         0.1381 
     93 H93       -52.4604  -28.5432    6.4417 H         1 UNK         0.1206 
     94 H94       -54.0880  -27.1337    9.3093 H         1 UNK         0.0813 
     95 H95       -53.9271  -27.0711    7.5883 H         1 UNK         0.0813 
     96 H96       -55.6298  -29.3884   10.3598 H         1 UNK         0.0638 
     97 H97       -57.2099  -29.5727    9.6713 H         1 UNK         0.0638 
     98 H98       -57.5312  -27.0058   10.0116 H         1 UNK         0.0568 
     99 H99       -59.7695  -28.6459   12.2459 H         1 UNK         0.3450 
    100 H100      -59.5046  -28.1607   10.5916 H         1 UNK         0.3450 
    101 H101      -55.0089  -27.3655   11.5066 H         1 UNK         0.2987 
    102 H102      -53.7685  -25.2571   11.5842 H         1 UNK         0.0766 
    103 H103      -53.7202  -23.0717   12.7571 H         1 UNK         0.0798 
    104 H104      -55.4690  -23.1159   12.9710 H         1 UNK         0.0798 
    105 H105      -54.7778  -22.9926   11.3590 H         1 UNK         0.0798 
    106 H106      -54.6682  -24.9959   14.3368 H         1 UNK         0.3198 
    107 H107      -54.8405  -27.2118   15.6927 H         1 UNK         0.0843 
    108 H108      -53.7895  -29.3571   14.9257 H         1 UNK         0.0831 
    109 H109      -53.2635  -28.8894   16.5343 H         1 UNK         0.0831 
    110 H110      -52.1929  -28.6534   15.1612 H         1 UNK         0.0831 
    111 H111      -51.9993  -26.2800   15.7847 H         1 UNK         0.3133 
    112 H112      -52.4430  -23.3705   16.6877 H         1 UNK         0.0566 
    113 H113      -52.1054  -23.0475   19.1526 H         1 UNK         0.0814 
    114 H114      -53.7960  -23.2348   18.7234 H         1 UNK         0.0814 
    115 H115      -52.9331  -24.5750   19.4572 H         1 UNK         0.0814 
    116 H116      -50.4439  -24.2171   16.6710 H         1 UNK         0.3091 
    117 H117      -48.4623  -25.7179   18.6563 H         1 UNK         0.0702 
    118 H118      -47.7322  -27.7972   17.4412 H         1 UNK         0.0785 
    119 H119      -49.3623  -27.9857   16.7974 H         1 UNK         0.0785 
    120 H120      -49.0757  -28.1045   18.5276 H         1 UNK         0.0785 
    121 H121      -48.8597  -25.7429   15.6992 H         1 UNK         0.2998 
    122 H122      -47.3889  -22.5836   15.3183 H         1 UNK         0.0697 
    123 H123      -45.9999  -25.1913   14.4917 H         1 UNK         0.0825 
    124 H124      -45.2556  -23.9072   15.4365 H         1 UNK         0.0825 
    125 H125      -45.7396  -23.6012   13.7769 H         1 UNK         0.0825 
    126 H126      -48.0697  -24.4413   13.3155 H         1 UNK         0.3029 
    127 H127      -51.6281  -24.3350   13.5988 H         1 UNK         0.0897 
    128 H128      -51.4820  -23.6884   11.2156 H         1 UNK         0.0792 
    129 H129      -51.0756  -22.3146   12.2299 H         1 UNK         0.0792 
    130 H130      -49.7976  -23.2073   11.4159 H         1 UNK         0.0792 
    131 H131      -50.0113  -25.6952   11.7257 H         1 UNK         0.3086 
    132 H132      -49.1527  -28.5181   13.7668 H         1 UNK         0.0583 
    133 H133      -51.5022  -28.9566   12.9967 H         1 UNK         0.1020 
    134 H134      -51.0881  -28.3285   11.4191 H         1 UNK         0.1020 
    135 H135      -51.3607  -32.2476   10.8556 H         1 UNK         0.0694 
    136 H136      -52.3881  -31.1312   11.7236 H         1 UNK         0.0694 
    137 H137      -48.7768  -27.4192   11.0323 H         1 UNK         0.2989 
    138 H138      -45.3618  -26.7383   11.6282 H         1 UNK         0.1055 
    139 H139      -45.3234  -29.2213   11.1898 H         1 UNK         0.0806 
    140 H140      -44.9189  -28.2839    9.7622 H         1 UNK         0.0806 
    141 H141      -46.5201  -29.0040    9.9173 H         1 UNK         0.0806 
    142 H142      -46.8011  -26.6372    9.1973 H         1 UNK         0.3061 
    143 H143      -48.1329  -23.3191    9.6994 H         1 UNK         0.0734 
    144 H144      -45.7260  -23.3057    8.9532 H         1 UNK         0.0832 
    145 H145      -46.1078  -24.5639    7.7858 H         1 UNK         0.0832 
    146 H146      -46.8615  -22.9783    7.6556 H         1 UNK         0.0832 
    147 H147      -48.7201  -24.5336    7.4580 H         1 UNK         0.3156 
    148 H148      -51.4462  -26.6316    8.1088 H         1 UNK         0.0589 
    149 H149      -51.5777  -23.5804    7.7607 H         1 UNK         0.0808 
    150 H150      -52.9065  -24.7061    7.4936 H         1 UNK         0.0808 
    151 H151      -52.2856  -24.4651    9.1057 H         1 UNK         0.0808 
    152 H152      -49.4970  -25.7670    6.3266 H         1 UNK         0.3098 
    153 H153      -51.2101  -26.7205    3.3886 H         1 UNK         0.0720 
    154 H154      -49.7372  -24.9714    2.4096 H         1 UNK         0.0791 
    155 H155      -49.5434  -24.2224    3.9937 H         1 UNK         0.0791 
    156 H156      -51.1212  -24.2653    3.2283 H         1 UNK         0.0791 
    157 H157      -49.4420  -27.9587    3.6818 H         1 UNK         0.3028 
@<TRIPOS>BOND
     1    1    2 1    
     2    1   82 1    
     3    1   83 1    
     4    1   84 1    
     5    2    3 2    
     6    2    4 am   BACKBONE|DICT|INTERRES
     7    4    5 1    
     8    4   85 1    
     9    5    6 1    
    10    5   80 1    
    11    5   86 1    
    12    6    7 1    
    13    6   87 1    
    14    6   88 1    
    15    7    8 1    
    16    8    9 1    
    17    8   89 1    
    18    8   90 1    
    19    9   10 ar   
    20    9   14 ar   
    21   10   11 ar   
    22   10   91 1    
    23   11   12 ar   
    24   11   58 1    
    25   12   13 ar   
    26   12   92 1    
    27   13   14 ar   
    28   13   15 1    
    29   14   93 1    
    30   15   16 1    
    31   15   94 1    
    32   15   95 1    
    33   16   17 1    
    34   17   18 1    
    35   17   96 1    
    36   17   97 1    
    37   18   19 1    
    38   18   22 1    
    39   18   98 1    
    40   19   20 am   BACKBONE|DICT|INTERRES
    41   19   21 2    
    42   20   99 1    
    43   20  100 1    
    44   22   23 am   BACKBONE|DICT|INTERRES
    45   22  101 1    
    46   23   24 2    
    47   23   25 1    
    48   25   26 1    
    49   25   27 1    
    50   25  102 1    
    51   26  103 1    
    52   26  104 1    
    53   26  105 1    
    54   27   28 am   BACKBONE|DICT|INTERRES
    55   27  106 1    
    56   28   29 2    
    57   28   30 1    
    58   30   31 1    
    59   30   32 1    
    60   30  107 1    
    61   31  108 1    
    62   31  109 1    
    63   31  110 1    
    64   32   33 am   BACKBONE|DICT|INTERRES
    65   32  111 1    
    66   33   34 2    
    67   33   35 1    
    68   35   36 1    
    69   35   37 1    
    70   35  112 1    
    71   36  113 1    
    72   36  114 1    
    73   36  115 1    
    74   37   38 am   BACKBONE|DICT|INTERRES
    75   37  116 1    
    76   38   39 2    
    77   38   40 1    
    78   40   41 1    
    79   40   42 1    
    80   40  117 1    
    81   41  118 1    
    82   41  119 1    
    83   41  120 1    
    84   42   43 am   BACKBONE|DICT|INTERRES
    85   42  121 1    
    86   43   44 2    
    87   43   45 1    
    88   45   46 1    
    89   45   47 1    
    90   45  122 1    
    91   46  123 1    
    92   46  124 1    
    93   46  125 1    
    94   47   48 am   BACKBONE|DICT|INTERRES
    95   47  126 1    
    96   48   49 2    
    97   48   50 1    
    98   50   51 1    
    99   50   52 1    
   100   50  127 1    
   101   51  128 1    
   102   51  129 1    
   103   51  130 1    
   104   52   53 am   BACKBONE|DICT|INTERRES
   105   52  131 1    
   106   53   54 2    
   107   53   55 1    
   108   55   56 1    
   109   55   59 1    
   110   55  132 1    
   111   56   57 1    
   112   56  133 1    
   113   56  134 1    
   114   57   58 1    
   115   58  135 1    
   116   58  136 1    
   117   59   60 am   BACKBONE|DICT|INTERRES
   118   59  137 1    
   119   60   61 2    
   120   60   62 1    
   121   62   63 1    
   122   62   64 1    
   123   62  138 1    
   124   63  139 1    
   125   63  140 1    
   126   63  141 1    
   127   64   65 am   BACKBONE|DICT|INTERRES
   128   64  142 1    
   129   65   66 2    
   130   65   67 1    
   131   67   68 1    
   132   67   69 1    
   133   67  143 1    
   134   68  144 1    
   135   68  145 1    
   136   68  146 1    
   137   69   70 am   BACKBONE|DICT|INTERRES
   138   69  147 1    
   139   70   71 2    
   140   70   72 1    
   141   72   73 1    
   142   72   74 1    
   143   72  148 1    
   144   73  149 1    
   145   73  150 1    
   146   73  151 1    
   147   74   75 am   BACKBONE|DICT|INTERRES
   148   74  152 1    
   149   75   76 2    
   150   75   77 1    
   151   77   78 1    
   152   77   79 1    
   153   77  153 1    
   154   78  154 1    
   155   78  155 1    
   156   78  156 1    
   157   79   80 am   BACKBONE|DICT|INTERRES
   158   79  157 1    
   159   80   81 2    
@<TRIPOS>SUBSTRUCTURE
     1 UNK         1 GROUP             0       ****    0 ROOT    
