@<TRIPOS>MOLECULE
3R207
157   159    1
SMALL
USER_CHARGES


@<TRIPOS>ATOM
      1 CA        -48.2493  -30.5155    7.6211 C.3       0 UNK        -0.1975 
      2 C         -49.4351  -29.5937    7.8943 C.2       0 UNK         0.4852 
      3 O         -49.7603  -29.3636    9.0550 O.2       0 UNK        -0.5216 
      4 N         -50.1055  -29.0433    6.8719 N.am      1 UNK        -0.4461 
      5 CA        -49.8056  -29.1715    5.4382 C.3       1 UNK         0.0864 
      6 C6        -51.0575  -28.8720    4.5751 C.3       14 UNK        -0.0898 
      7 S7        -51.6982  -27.1638    4.7252 S.3       14 UNK        -0.2598 
      8 C8        -53.3562  -27.4245    5.4293 C.3       14 UNK         0.0286 
      9 C9        -53.3179  -27.5235    6.9467 C.ar      14 UNK        -0.0844 
     10 C10       -53.3192  -26.3592    7.7185 C.ar      14 UNK        -0.0881 
     11 C11       -53.3126  -26.4280    9.1159 C.ar      14 UNK        -0.0643 
     12 C12       -53.3238  -27.6813    9.7356 C.ar      14 UNK        -0.0930 
     13 C13       -53.3260  -28.8599    8.9771 C.ar      14 UNK        -0.0827 
     14 C14       -53.3214  -28.7684    7.5811 C.ar      14 UNK        -0.1249 
     15 C15       -53.4094  -30.2450    9.6193 C.3       14 UNK         0.0141 
     16 S16       -52.7925  -30.3530   11.3362 S.3       14 UNK        -0.2313 
     17 C17       -53.6870  -31.8356   11.9026 C.3       14 UNK        -0.0915 
     18 CA        -55.0691  -31.4991   12.5326 C.3       13 UNK         0.0968 
     19 C         -55.9835  -32.7503   12.5631 C.2       13 UNK         0.5732 
     20 N         -56.6327  -33.0716   11.4527 N.am      13 UNK        -0.7310 
     21 O         -56.0920  -33.4462   13.5727 O.2       13 UNK        -0.5035 
     22 N         -54.9514  -30.9531   13.8898 N.am      13 UNK        -0.4233 
     23 C         -54.9422  -29.6617   14.2317 C.2       13 UNK         0.4989 
     24 O         -54.9396  -28.7301   13.4240 O.2       13 UNK        -0.4996 
     25 CA        -54.9256  -29.3832   15.7472 C.3       12 UNK         0.0216 
     26 CB        -53.5918  -29.8195   16.3802 C.3       12 UNK        -0.1964 
     27 N         -55.1729  -27.9717   16.0594 N.am      12 UNK        -0.4276 
     28 C         -56.3784  -27.3853   16.0012 C.2       12 UNK         0.5020 
     29 O         -57.4153  -27.9942   15.7296 O.2       12 UNK        -0.5489 
     30 CA        -56.4732  -25.8814   16.3264 C.3       11 UNK         0.0294 
     31 CB        -57.0744  -25.6729   17.7267 C.3       11 UNK        -0.2019 
     32 N         -55.1889  -25.1830   16.2558 N.am      11 UNK        -0.4493 
     33 C         -54.5987  -24.7730   15.1257 C.2       11 UNK         0.4932 
     34 O         -55.1011  -24.8872   14.0077 O.2       11 UNK        -0.5029 
     35 CA        -53.2027  -24.1351   15.2615 C.3       10 UNK         0.0280 
     36 CB        -52.9539  -23.4488   16.6234 C.3       10 UNK        -0.1976 
     37 N         -52.1402  -25.0988   14.9653 N.am      10 UNK        -0.4242 
     38 C         -51.9229  -26.2778   15.5665 C.2       10 UNK         0.5072 
     39 O         -52.5900  -26.7054   16.5104 O.2       10 UNK        -0.5224 
     40 CA        -50.7679  -27.1305   15.0206 C.3       9 UNK         0.0343 
     41 CB        -51.1831  -27.8228   13.7112 C.3       9 UNK        -0.2003 
     42 N         -49.5389  -26.3643   14.8050 N.am      9 UNK        -0.4272 
     43 C         -48.8005  -25.8003   15.7722 C.2       9 UNK         0.4988 
     44 O         -49.0596  -25.8857   16.9732 O.2       9 UNK        -0.5108 
     45 CA        -47.5549  -25.0114   15.3292 C.3       8 UNK         0.0248 
     46 CB        -46.3842  -25.9602   15.0245 C.3       8 UNK        -0.2001 
     47 N         -47.8109  -24.1522   14.1712 N.am      8 UNK        -0.4140 
     48 C         -48.5864  -23.0583   14.2002 C.2       8 UNK         0.5028 
     49 O         -49.0998  -22.6075   15.2250 O.2       8 UNK        -0.5428 
     50 CA        -48.8582  -22.3563   12.8575 C.3       7 UNK         0.0264 
     51 CB        -47.7182  -21.3868   12.5077 C.3       7 UNK        -0.1988 
     52 N         -49.0769  -23.2884   11.7471 N.am      7 UNK        -0.4454 
     53 C         -50.0767  -24.1832   11.6975 C.2       7 UNK         0.5027 
     54 O         -50.9336  -24.2960   12.5742 O.2       7 UNK        -0.5083 
     55 CA        -50.0984  -25.1555   10.5006 C.3       6 UNK         0.0844 
     56 C56       -50.6672  -24.5116    9.2111 C.3       14 UNK        -0.0967 
     57 S57       -52.3392  -23.7830    9.3396 S.3       14 UNK        -0.2604 
     58 C58       -53.3482  -25.1668    9.9767 C.3       14 UNK         0.0134 
     59 N         -48.7769  -25.7318   10.2574 N.am      6 UNK        -0.4116 
     60 C         -48.0784  -26.4816   11.1198 C.2       5 UNK         0.5034 
     61 O         -48.4895  -26.8241   12.2258 O.2       5 UNK        -0.5045 
     62 CA        -46.6454  -26.8501   10.7079 C.3       5 UNK         0.0224 
     63 CB        -46.6319  -28.0286    9.7242 C.3       5 UNK        -0.1978 
     64 N         -45.9325  -25.7107   10.1279 N.am      5 UNK        -0.4737 
     65 C         -45.5786  -24.6156   10.8144 C.2       4 UNK         0.5027 
     66 O         -45.7859  -24.4652   12.0181 O.2       4 UNK        -0.5211 
     67 CA        -44.9112  -23.4873   10.0119 C.3       4 UNK         0.0297 
     68 CB        -43.4030  -23.7448    9.8687 C.3       4 UNK        -0.1993 
     69 N         -45.5096  -23.3047    8.6860 N.am      4 UNK        -0.4486 
     70 C         -46.7571  -22.8607    8.4789 C.2       3 UNK         0.4961 
     71 O         -47.5377  -22.5572    9.3814 O.2       3 UNK        -0.5105 
     72 CA        -47.2275  -22.7888    7.0158 C.3       3 UNK         0.0299 
     73 CB        -46.6135  -21.5726    6.3035 C.3       3 UNK        -0.1972 
     74 N         -46.9590  -24.0089    6.2427 N.am      3 UNK        -0.4305 
     75 C         -47.4209  -25.2238    6.5657 C.2       2 UNK         0.5006 
     76 O         -48.0451  -25.4662    7.6010 O.2       2 UNK        -0.5106 
     77 CA        -47.1401  -26.3714    5.5919 C.3       2 UNK         0.0296 
     78 CB        -45.7510  -26.9870    5.8407 C.3       2 UNK        -0.2002 
     79 N         -48.1856  -27.3619    5.8170 N.am      2 UNK        -0.4032 
     80 C         -48.5869  -28.3301    4.9878 C.2       1 UNK         0.5000 
     81 O         -48.0435  -28.5762    3.9096 O.2       1 UNK        -0.5238 
     82 H82       -48.5443  -31.3614    7.0013 H         1 UNK         0.0889 
     83 H83       -47.8586  -30.9166    8.5561 H         1 UNK         0.0889 
     84 H84       -47.4382  -29.9798    7.1293 H         1 UNK         0.0889 
     85 H85       -50.9040  -28.4595    7.0865 H         1 UNK         0.3028 
     86 H86       -49.5411  -30.2120    5.2433 H         1 UNK         0.0864 
     87 H87       -50.8390  -29.0554    3.5213 H         1 UNK         0.0720 
     88 H88       -51.8466  -29.5809    4.8292 H         1 UNK         0.0720 
     89 H89       -53.8199  -28.3096    4.9912 H         1 UNK         0.0814 
     90 H90       -53.9901  -26.5850    5.1396 H         1 UNK         0.0814 
     91 H91       -53.3323  -25.3963    7.2265 H         1 UNK         0.1469 
     92 H92       -53.3545  -27.7320   10.8153 H         1 UNK         0.1381 
     93 H93       -53.3404  -29.6709    6.9851 H         1 UNK         0.1206 
     94 H94       -54.4548  -30.5547    9.5941 H         1 UNK         0.0813 
     95 H95       -52.8549  -30.9663    9.0169 H         1 UNK         0.0813 
     96 H96       -53.7922  -32.5078   11.0485 H         1 UNK         0.0638 
     97 H97       -53.0596  -32.3660   12.6209 H         1 UNK         0.0638 
     98 H98       -55.5776  -30.7631   11.9062 H         1 UNK         0.0568 
     99 H99       -56.5492  -32.5148   10.6168 H         1 UNK         0.3450 
    100 H100      -57.2241  -33.8880   11.4525 H         1 UNK         0.3450 
    101 H101      -54.9967  -31.6563   14.6150 H         1 UNK         0.2987 
    102 H102      -55.7240  -29.9734   16.2026 H         1 UNK         0.0766 
    103 H103      -53.5615  -29.5843   17.4444 H         1 UNK         0.0798 
    104 H104      -52.7392  -29.3338   15.9084 H         1 UNK         0.0798 
    105 H105      -53.4414  -30.8955   16.2861 H         1 UNK         0.0798 
    106 H106      -54.3537  -27.4012   16.2555 H         1 UNK         0.3198 
    107 H107      -57.1520  -25.4352   15.5960 H         1 UNK         0.0843 
    108 H108      -56.4410  -26.0982   18.5062 H         1 UNK         0.0831 
    109 H109      -58.0524  -26.1497   17.8063 H         1 UNK         0.0831 
    110 H110      -57.2143  -24.6141   17.9458 H         1 UNK         0.0831 
    111 H111      -54.6750  -25.0830   17.1199 H         1 UNK         0.3133 
    112 H112      -53.1381  -23.3652   14.4910 H         1 UNK         0.0566 
    113 H113      -52.0140  -22.8961   16.6091 H         1 UNK         0.0814 
    114 H114      -53.7436  -22.7319   16.8525 H         1 UNK         0.0814 
    115 H115      -52.8990  -24.1587   17.4490 H         1 UNK         0.0814 
    116 H116      -51.5697  -24.8646   14.1524 H         1 UNK         0.3091 
    117 H117      -50.5508  -27.9046   15.7594 H         1 UNK         0.0702 
    118 H118      -52.1107  -28.3822   13.8326 H         1 UNK         0.0785 
    119 H119      -50.4227  -28.5282   13.3758 H         1 UNK         0.0785 
    120 H120      -51.3463  -27.1045   12.9075 H         1 UNK         0.0785 
    121 H121      -49.2071  -26.3088   13.8442 H         1 UNK         0.2998 
    122 H122      -47.2571  -24.3694   16.1610 H         1 UNK         0.0697 
    123 H123      -45.4782  -25.4049   14.7808 H         1 UNK         0.0825 
    124 H124      -46.6046  -26.6208   14.1857 H         1 UNK         0.0825 
    125 H125      -46.1579  -26.5900   15.8858 H         1 UNK         0.0825 
    126 H126      -47.3632  -24.4116   13.2973 H         1 UNK         0.3029 
    127 H127      -49.7741  -21.7732   12.9757 H         1 UNK         0.0897 
    128 H128      -47.9428  -20.8205   11.6036 H         1 UNK         0.0792 
    129 H129      -46.7763  -21.9119   12.3476 H         1 UNK         0.0792 
    130 H130      -47.5583  -20.6661   13.3107 H         1 UNK         0.0792 
    131 H131      -48.4368  -23.2182   10.9594 H         1 UNK         0.3086 
    132 H132      -50.7446  -25.9919   10.7720 H         1 UNK         0.0583 
    133 H133      -49.9945  -23.7287    8.8565 H         1 UNK         0.1020 
    134 H134      -50.6889  -25.2565    8.4140 H         1 UNK         0.1020 
    135 H135      -53.0345  -25.3880   10.9982 H         1 UNK         0.0694 
    136 H136      -54.3834  -24.8311   10.0475 H         1 UNK         0.0694 
    137 H137      -48.3671  -25.5337    9.3463 H         1 UNK         0.2989 
    138 H138      -46.1128  -27.1559   11.6114 H         1 UNK         0.1055 
    139 H139      -47.1353  -28.8952   10.1551 H         1 UNK         0.0806 
    140 H140      -45.6144  -28.3335    9.4797 H         1 UNK         0.0806 
    141 H141      -47.1444  -27.7839    8.7944 H         1 UNK         0.0806 
    142 H142      -45.7581  -25.7323    9.1344 H         1 UNK         0.3061 
    143 H143      -45.0459  -22.5596   10.5723 H         1 UNK         0.0734 
    144 H144      -42.9029  -22.9118    9.3744 H         1 UNK         0.0832 
    145 H145      -42.9353  -23.8659   10.8470 H         1 UNK         0.0832 
    146 H146      -43.1969  -24.6497    9.2957 H         1 UNK         0.0832 
    147 H147      -44.9409  -23.5372    7.8847 H         1 UNK         0.3156 
    148 H148      -48.3110  -22.6523    7.0332 H         1 UNK         0.0589 
    149 H149      -45.5319  -21.6646    6.1980 H         1 UNK         0.0808 
    150 H150      -47.0377  -21.4402    5.3080 H         1 UNK         0.0808 
    151 H151      -46.8096  -20.6549    6.8602 H         1 UNK         0.0808 
    152 H152      -46.4443  -23.8969    5.3805 H         1 UNK         0.3098 
    153 H153      -47.2110  -25.9985    4.5681 H         1 UNK         0.0720 
    154 H154      -45.5534  -27.8099    5.1537 H         1 UNK         0.0791 
    155 H155      -45.6538  -27.3719    6.8561 H         1 UNK         0.0791 
    156 H156      -44.9621  -26.2487    5.6929 H         1 UNK         0.0791 
    157 H157      -48.7134  -27.1962    6.6663 H         1 UNK         0.3028 
@<TRIPOS>BOND
     1    1    2 1    
     2    1   82 1    
     3    1   83 1    
     4    1   84 1    
     5    2    3 2    
     6    2    4 am   BACKBONE|DICT|INTERRES
     7    4    5 1    
     8    4   85 1    
     9    5    6 1    
    10    5   80 1    
    11    5   86 1    
    12    6    7 1    
    13    6   87 1    
    14    6   88 1    
    15    7    8 1    
    16    8    9 1    
    17    8   89 1    
    18    8   90 1    
    19    9   10 ar   
    20    9   14 ar   
    21   10   11 ar   
    22   10   91 1    
    23   11   12 ar   
    24   11   58 1    
    25   12   13 ar   
    26   12   92 1    
    27   13   14 ar   
    28   13   15 1    
    29   14   93 1    
    30   15   16 1    
    31   15   94 1    
    32   15   95 1    
    33   16   17 1    
    34   17   18 1    
    35   17   96 1    
    36   17   97 1    
    37   18   19 1    
    38   18   22 1    
    39   18   98 1    
    40   19   20 am   BACKBONE|DICT|INTERRES
    41   19   21 2    
    42   20   99 1    
    43   20  100 1    
    44   22   23 am   BACKBONE|DICT|INTERRES
    45   22  101 1    
    46   23   24 2    
    47   23   25 1    
    48   25   26 1    
    49   25   27 1    
    50   25  102 1    
    51   26  103 1    
    52   26  104 1    
    53   26  105 1    
    54   27   28 am   BACKBONE|DICT|INTERRES
    55   27  106 1    
    56   28   29 2    
    57   28   30 1    
    58   30   31 1    
    59   30   32 1    
    60   30  107 1    
    61   31  108 1    
    62   31  109 1    
    63   31  110 1    
    64   32   33 am   BACKBONE|DICT|INTERRES
    65   32  111 1    
    66   33   34 2    
    67   33   35 1    
    68   35   36 1    
    69   35   37 1    
    70   35  112 1    
    71   36  113 1    
    72   36  114 1    
    73   36  115 1    
    74   37   38 am   BACKBONE|DICT|INTERRES
    75   37  116 1    
    76   38   39 2    
    77   38   40 1    
    78   40   41 1    
    79   40   42 1    
    80   40  117 1    
    81   41  118 1    
    82   41  119 1    
    83   41  120 1    
    84   42   43 am   BACKBONE|DICT|INTERRES
    85   42  121 1    
    86   43   44 2    
    87   43   45 1    
    88   45   46 1    
    89   45   47 1    
    90   45  122 1    
    91   46  123 1    
    92   46  124 1    
    93   46  125 1    
    94   47   48 am   BACKBONE|DICT|INTERRES
    95   47  126 1    
    96   48   49 2    
    97   48   50 1    
    98   50   51 1    
    99   50   52 1    
   100   50  127 1    
   101   51  128 1    
   102   51  129 1    
   103   51  130 1    
   104   52   53 am   BACKBONE|DICT|INTERRES
   105   52  131 1    
   106   53   54 2    
   107   53   55 1    
   108   55   56 1    
   109   55   59 1    
   110   55  132 1    
   111   56   57 1    
   112   56  133 1    
   113   56  134 1    
   114   57   58 1    
   115   58  135 1    
   116   58  136 1    
   117   59   60 am   BACKBONE|DICT|INTERRES
   118   59  137 1    
   119   60   61 2    
   120   60   62 1    
   121   62   63 1    
   122   62   64 1    
   123   62  138 1    
   124   63  139 1    
   125   63  140 1    
   126   63  141 1    
   127   64   65 am   BACKBONE|DICT|INTERRES
   128   64  142 1    
   129   65   66 2    
   130   65   67 1    
   131   67   68 1    
   132   67   69 1    
   133   67  143 1    
   134   68  144 1    
   135   68  145 1    
   136   68  146 1    
   137   69   70 am   BACKBONE|DICT|INTERRES
   138   69  147 1    
   139   70   71 2    
   140   70   72 1    
   141   72   73 1    
   142   72   74 1    
   143   72  148 1    
   144   73  149 1    
   145   73  150 1    
   146   73  151 1    
   147   74   75 am   BACKBONE|DICT|INTERRES
   148   74  152 1    
   149   75   76 2    
   150   75   77 1    
   151   77   78 1    
   152   77   79 1    
   153   77  153 1    
   154   78  154 1    
   155   78  155 1    
   156   78  156 1    
   157   79   80 am   BACKBONE|DICT|INTERRES
   158   79  157 1    
   159   80   81 2    
@<TRIPOS>SUBSTRUCTURE
     1 UNK         1 GROUP             0       ****    0 ROOT    
