@<TRIPOS>MOLECULE
3R207
157   159    1
SMALL
USER_CHARGES


@<TRIPOS>ATOM
      1 CA        -47.8755  -30.1342    3.8598 C.3       0 UNK        -0.1975 
      2 C         -47.8100  -29.0677    4.9433 C.2       0 UNK         0.4852 
      3 O         -46.9642  -28.1751    4.8723 O.2       0 UNK        -0.5216 
      4 N         -48.7039  -29.1490    5.9359 N.am      1 UNK        -0.4461 
      5 CA        -48.7468  -28.2667    7.1053 C.3       1 UNK         0.0864 
      6 C6        -50.1768  -28.1331    7.6911 C.3       14 UNK        -0.0898 
      7 S7        -51.0790  -29.7080    7.8891 S.3       14 UNK        -0.2598 
      8 C8        -52.4591  -29.4681    6.7219 C.3       14 UNK         0.0286 
      9 C9        -53.4325  -28.4063    7.2160 C.ar      14 UNK        -0.0844 
     10 C10       -53.4695  -27.1368    6.6288 C.ar      14 UNK        -0.0881 
     11 C11       -54.3549  -26.1602    7.0982 C.ar      14 UNK        -0.0643 
     12 C12       -55.2079  -26.4663    8.1648 C.ar      14 UNK        -0.0930 
     13 C13       -55.1970  -27.7405    8.7434 C.ar      14 UNK        -0.0827 
     14 C14       -54.3095  -28.7051    8.2604 C.ar      14 UNK        -0.1249 
     15 C15       -56.1696  -28.0862    9.8630 C.3       14 UNK         0.0141 
     16 S16       -55.4705  -27.7375   11.5054 S.3       14 UNK        -0.2313 
     17 C17       -54.4447  -29.2156   11.8231 C.3       14 UNK        -0.0915 
     18 CA        -54.9588  -30.0708   13.0110 C.3       13 UNK         0.0968 
     19 C         -54.1427  -31.3886   13.1669 C.2       13 UNK         0.5732 
     20 N         -53.5955  -31.7156   14.3331 N.am      13 UNK        -0.7310 
     21 O         -54.0162  -32.1464   12.2080 O.2       13 UNK        -0.5035 
     22 N         -55.0552  -29.2900   14.2545 N.am      13 UNK        -0.4233 
     23 C         -55.9787  -29.5038   15.2009 C.2       13 UNK         0.4989 
     24 O         -56.8889  -30.3279   15.0889 O.2       13 UNK        -0.4996 
     25 CA        -55.8725  -28.6604   16.4876 C.3       12 UNK         0.0216 
     26 CB        -56.6451  -29.2788   17.6726 C.3       12 UNK        -0.1964 
     27 N         -54.4942  -28.3492   16.8858 N.am      12 UNK        -0.4276 
     28 C         -53.5026  -29.2151   17.1552 C.2       12 UNK         0.5020 
     29 O         -53.6256  -30.4372   17.0580 O.2       12 UNK        -0.5489 
     30 CA        -52.1402  -28.6257   17.5745 C.3       11 UNK         0.0294 
     31 CB        -50.9688  -29.4165   16.9627 C.3       11 UNK        -0.2019 
     32 N         -52.0242  -27.2251   17.1670 N.am      11 UNK        -0.4493 
     33 C         -52.1420  -26.1597   17.9717 C.2       11 UNK         0.4932 
     34 O         -52.2574  -26.2352   19.1947 O.2       11 UNK        -0.5029 
     35 CA        -52.1735  -24.7718   17.2995 C.3       10 UNK         0.0280 
     36 CB        -50.7980  -24.0953   17.4052 C.3       10 UNK        -0.1976 
     37 N         -52.5938  -24.8164   15.8931 N.am      10 UNK        -0.4242 
     38 C         -53.8250  -25.1669   15.4837 C.2       10 UNK         0.5072 
     39 O         -54.7508  -25.4011   16.2609 O.2       10 UNK        -0.5224 
     40 CA        -54.0592  -25.3756   13.9744 C.3       9 UNK         0.0343 
     41 CB        -54.6685  -24.1160   13.3416 C.3       9 UNK        -0.2003 
     42 N         -52.8567  -25.7586   13.2292 N.am      9 UNK        -0.4272 
     43 C         -52.0927  -26.8316   13.4897 C.2       9 UNK         0.4988 
     44 O         -52.4197  -27.7039   14.2950 O.2       9 UNK        -0.5108 
     45 CA        -50.7143  -26.9303   12.7977 C.3       8 UNK         0.0248 
     46 CB        -50.7777  -27.9322   11.6328 C.3       8 UNK        -0.2001 
     47 N         -50.1904  -25.6534   12.2977 N.am      8 UNK        -0.4140 
     48 C         -50.0661  -24.5112   12.9943 C.2       8 UNK         0.5028 
     49 O         -50.2230  -24.4360   14.2127 O.2       8 UNK        -0.5428 
     50 CA        -49.8252  -23.2164   12.1915 C.3       7 UNK         0.0264 
     51 CB        -48.3661  -22.7659   12.3427 C.3       7 UNK        -0.1988 
     52 N         -50.1554  -23.3193   10.7628 N.am      7 UNK        -0.4454 
     53 C         -51.3397  -23.6954   10.2496 C.2       7 UNK         0.5027 
     54 O         -52.3422  -23.8585   10.9468 O.2       7 UNK        -0.5083 
     55 CA        -51.4161  -24.0322    8.7398 C.3       6 UNK         0.0844 
     56 C56       -52.6411  -23.3629    8.0701 C.3       14 UNK        -0.0967 
     57 S57       -52.8581  -23.9054    6.3403 S.3       14 UNK        -0.2604 
     58 C58       -54.4451  -24.8022    6.4081 C.3       14 UNK         0.0134 
     59 N         -50.1709  -23.7852    7.9964 N.am      6 UNK        -0.4116 
     60 C         -49.0257  -24.4660    8.1324 C.2       5 UNK         0.5034 
     61 O         -48.8690  -25.3633    8.9617 O.2       5 UNK        -0.5045 
     62 CA        -47.8445  -24.0875    7.2200 C.3       5 UNK         0.0224 
     63 CB        -48.1733  -23.0048    6.1662 C.3       5 UNK        -0.1978 
     64 N         -46.6557  -23.7130    7.9962 N.am      5 UNK        -0.4737 
     65 C         -46.5446  -22.7023    8.8722 C.2       4 UNK         0.5027 
     66 O         -47.4820  -21.9663    9.1833 O.2       4 UNK        -0.5211 
     67 CA        -45.1544  -22.4901    9.5009 C.3       4 UNK         0.0297 
     68 CB        -45.1733  -21.5668   10.7337 C.3       4 UNK        -0.1993 
     69 N         -44.5582  -23.7753    9.8659 N.am      4 UNK        -0.4486 
     70 C         -43.3943  -24.2557    9.4095 C.2       3 UNK         0.4961 
     71 O         -42.6283  -23.6236    8.6815 O.2       3 UNK        -0.5105 
     72 CA        -43.0228  -25.6988    9.8137 C.3       3 UNK         0.0299 
     73 CB        -42.0057  -25.6842   10.9666 C.3       3 UNK        -0.1972 
     74 N         -44.1641  -26.5460   10.1900 N.am      3 UNK        -0.4305 
     75 C         -45.2006  -26.8456    9.3938 C.2       2 UNK         0.5006 
     76 O         -45.2964  -26.4389    8.2322 O.2       2 UNK        -0.5106 
     77 CA        -46.3266  -27.6947   10.0168 C.3       2 UNK         0.0296 
     78 CB        -46.8048  -27.1080   11.3610 C.3       2 UNK        -0.2002 
     79 N         -47.4647  -27.7304    9.1028 N.am      2 UNK        -0.4032 
     80 C         -47.6912  -28.6550    8.1638 C.2       1 UNK         0.5000 
     81 O         -47.1016  -29.7389    8.1043 O.2       1 UNK        -0.5238 
     82 H82       -48.6810  -30.8467    4.0369 H         1 UNK         0.0889 
     83 H83       -46.9369  -30.6864    3.8208 H         1 UNK         0.0889 
     84 H84       -48.0401  -29.6715    2.8870 H         1 UNK         0.0889 
     85 H85       -49.3506  -29.9243    5.9678 H         1 UNK         0.3028 
     86 H86       -48.4594  -27.2705    6.7637 H         1 UNK         0.0864 
     87 H87       -50.7467  -27.4741    7.0373 H         1 UNK         0.0720 
     88 H88       -50.1738  -27.6257    8.6559 H         1 UNK         0.0720 
     89 H89       -52.0661  -29.2109    5.7370 H         1 UNK         0.0814 
     90 H90       -52.9882  -30.4145    6.6012 H         1 UNK         0.0814 
     91 H91       -52.8131  -26.9052    5.8012 H         1 UNK         0.1469 
     92 H92       -55.9028  -25.7220    8.5291 H         1 UNK         0.1381 
     93 H93       -54.2957  -29.6949    8.6939 H         1 UNK         0.1206 
     94 H94       -56.4713  -29.1329    9.8019 H         1 UNK         0.0813 
     95 H95       -57.0847  -27.5038    9.7458 H         1 UNK         0.0813 
     96 H96       -54.4038  -29.8217   10.9192 H         1 UNK         0.0638 
     97 H97       -53.4237  -28.8898   12.0057 H         1 UNK         0.0638 
     98 H98       -55.9639  -30.3959   12.7365 H         1 UNK         0.0568 
     99 H99       -53.7074  -31.1333   15.1559 H         1 UNK         0.3450 
    100 H100      -53.0802  -32.5779   14.4029 H         1 UNK         0.3450 
    101 H101      -54.2988  -28.6372   14.4241 H         1 UNK         0.2987 
    102 H102      -56.3425  -27.7042   16.2534 H         1 UNK         0.0766 
    103 H103      -56.5787  -28.6502   18.5607 H         1 UNK         0.0798 
    104 H104      -57.7042  -29.3905   17.4370 H         1 UNK         0.0798 
    105 H105      -56.2629  -30.2669   17.9315 H         1 UNK         0.0798 
    106 H106      -54.2906  -27.3584   16.9563 H         1 UNK         0.3198 
    107 H107      -52.0773  -28.7106   18.6613 H         1 UNK         0.0843 
    108 H108      -51.0193  -29.4349   15.8733 H         1 UNK         0.0831 
    109 H109      -50.9723  -30.4519   17.3059 H         1 UNK         0.0831 
    110 H110      -50.0084  -28.9869   17.2474 H         1 UNK         0.0831 
    111 H111      -51.9738  -27.0785   16.1639 H         1 UNK         0.3133 
    112 H112      -52.8954  -24.1591   17.8434 H         1 UNK         0.0566 
    113 H113      -50.0229  -24.6779   16.9057 H         1 UNK         0.0814 
    114 H114      -50.4981  -23.9817   18.4479 H         1 UNK         0.0814 
    115 H115      -50.8080  -23.1002   16.9600 H         1 UNK         0.0814 
    116 H116      -51.8644  -24.6552   15.2010 H         1 UNK         0.3091 
    117 H117      -54.7793  -26.1890   13.8769 H         1 UNK         0.0702 
    118 H118      -54.9346  -24.2896   12.2985 H         1 UNK         0.0785 
    119 H119      -53.9762  -23.2737   13.3744 H         1 UNK         0.0785 
    120 H120      -55.5786  -23.8157   13.8627 H         1 UNK         0.0785 
    121 H121      -52.5533  -25.1077   12.5111 H         1 UNK         0.2998 
    122 H122      -50.0045  -27.3019   13.5390 H         1 UNK         0.0697 
    123 H123      -51.5148  -27.6362   10.8844 H         1 UNK         0.0825 
    124 H124      -51.0534  -28.9254   11.9895 H         1 UNK         0.0825 
    125 H125      -49.8167  -28.0331   11.1303 H         1 UNK         0.0825 
    126 H126      -50.0154  -25.6040   11.3039 H         1 UNK         0.3029 
    127 H127      -50.4715  -22.4489   12.6220 H         1 UNK         0.0897 
    128 H128      -48.2031  -21.7949   11.8746 H         1 UNK         0.0792 
    129 H129      -48.0917  -22.6666   13.3940 H         1 UNK         0.0792 
    130 H130      -47.6779  -23.4807   11.8902 H         1 UNK         0.0792 
    131 H131      -49.3852  -23.1864   10.1198 H         1 UNK         0.3086 
    132 H132      -51.5880  -25.1106    8.7021 H         1 UNK         0.0583 
    133 H133      -53.5539  -23.5858    8.6266 H         1 UNK         0.1020 
    134 H134      -52.5391  -22.2763    8.0830 H         1 UNK         0.1020 
    135 H135      -55.1935  -24.1673    6.8851 H         1 UNK         0.0694 
    136 H136      -54.7924  -24.9612    5.3864 H         1 UNK         0.0694 
    137 H137      -50.2121  -23.0523    7.3036 H         1 UNK         0.2989 
    138 H138      -47.5789  -24.9981    6.6810 H         1 UNK         0.1055 
    139 H139      -47.3168  -22.8239    5.5165 H         1 UNK         0.0806 
    140 H140      -48.4441  -22.0506    6.6200 H         1 UNK         0.0806 
    141 H141      -48.9965  -23.3152    5.5209 H         1 UNK         0.0806 
    142 H142      -45.8575  -24.3278    7.8801 H         1 UNK         0.3061 
    143 H143      -44.5559  -21.9993    8.7307 H         1 UNK         0.0734 
    144 H144      -45.6346  -20.6058   10.5024 H         1 UNK         0.0832 
    145 H145      -45.7253  -22.0070   11.5628 H         1 UNK         0.0832 
    146 H146      -44.1615  -21.3607   11.0829 H         1 UNK         0.0832 
    147 H147      -45.1224  -24.3792   10.4460 H         1 UNK         0.3156 
    148 H148      -42.5473  -26.1616    8.9465 H         1 UNK         0.0589 
    149 H149      -42.4314  -25.2572   11.8757 H         1 UNK         0.0808 
    150 H150      -41.6520  -26.6889   11.1989 H         1 UNK         0.0808 
    151 H151      -41.1295  -25.0881   10.7070 H         1 UNK         0.0808 
    152 H152      -44.1523  -26.9216   11.1276 H         1 UNK         0.3098 
    153 H153      -45.9427  -28.7033   10.1821 H         1 UNK         0.0720 
    154 H154      -47.6054  -27.7104   11.7884 H         1 UNK         0.0791 
    155 H155      -46.0071  -27.0867   12.1037 H         1 UNK         0.0791 
    156 H156      -47.1798  -26.0897   11.2486 H         1 UNK         0.0791 
    157 H157      -47.9927  -26.8595    9.0483 H         1 UNK         0.3028 
@<TRIPOS>BOND
     1    1    2 1    
     2    1   82 1    
     3    1   83 1    
     4    1   84 1    
     5    2    3 2    
     6    2    4 am   BACKBONE|DICT|INTERRES
     7    4    5 1    
     8    4   85 1    
     9    5    6 1    
    10    5   80 1    
    11    5   86 1    
    12    6    7 1    
    13    6   87 1    
    14    6   88 1    
    15    7    8 1    
    16    8    9 1    
    17    8   89 1    
    18    8   90 1    
    19    9   10 ar   
    20    9   14 ar   
    21   10   11 ar   
    22   10   91 1    
    23   11   12 ar   
    24   11   58 1    
    25   12   13 ar   
    26   12   92 1    
    27   13   14 ar   
    28   13   15 1    
    29   14   93 1    
    30   15   16 1    
    31   15   94 1    
    32   15   95 1    
    33   16   17 1    
    34   17   18 1    
    35   17   96 1    
    36   17   97 1    
    37   18   19 1    
    38   18   22 1    
    39   18   98 1    
    40   19   20 am   BACKBONE|DICT|INTERRES
    41   19   21 2    
    42   20   99 1    
    43   20  100 1    
    44   22   23 am   BACKBONE|DICT|INTERRES
    45   22  101 1    
    46   23   24 2    
    47   23   25 1    
    48   25   26 1    
    49   25   27 1    
    50   25  102 1    
    51   26  103 1    
    52   26  104 1    
    53   26  105 1    
    54   27   28 am   BACKBONE|DICT|INTERRES
    55   27  106 1    
    56   28   29 2    
    57   28   30 1    
    58   30   31 1    
    59   30   32 1    
    60   30  107 1    
    61   31  108 1    
    62   31  109 1    
    63   31  110 1    
    64   32   33 am   BACKBONE|DICT|INTERRES
    65   32  111 1    
    66   33   34 2    
    67   33   35 1    
    68   35   36 1    
    69   35   37 1    
    70   35  112 1    
    71   36  113 1    
    72   36  114 1    
    73   36  115 1    
    74   37   38 am   BACKBONE|DICT|INTERRES
    75   37  116 1    
    76   38   39 2    
    77   38   40 1    
    78   40   41 1    
    79   40   42 1    
    80   40  117 1    
    81   41  118 1    
    82   41  119 1    
    83   41  120 1    
    84   42   43 am   BACKBONE|DICT|INTERRES
    85   42  121 1    
    86   43   44 2    
    87   43   45 1    
    88   45   46 1    
    89   45   47 1    
    90   45  122 1    
    91   46  123 1    
    92   46  124 1    
    93   46  125 1    
    94   47   48 am   BACKBONE|DICT|INTERRES
    95   47  126 1    
    96   48   49 2    
    97   48   50 1    
    98   50   51 1    
    99   50   52 1    
   100   50  127 1    
   101   51  128 1    
   102   51  129 1    
   103   51  130 1    
   104   52   53 am   BACKBONE|DICT|INTERRES
   105   52  131 1    
   106   53   54 2    
   107   53   55 1    
   108   55   56 1    
   109   55   59 1    
   110   55  132 1    
   111   56   57 1    
   112   56  133 1    
   113   56  134 1    
   114   57   58 1    
   115   58  135 1    
   116   58  136 1    
   117   59   60 am   BACKBONE|DICT|INTERRES
   118   59  137 1    
   119   60   61 2    
   120   60   62 1    
   121   62   63 1    
   122   62   64 1    
   123   62  138 1    
   124   63  139 1    
   125   63  140 1    
   126   63  141 1    
   127   64   65 am   BACKBONE|DICT|INTERRES
   128   64  142 1    
   129   65   66 2    
   130   65   67 1    
   131   67   68 1    
   132   67   69 1    
   133   67  143 1    
   134   68  144 1    
   135   68  145 1    
   136   68  146 1    
   137   69   70 am   BACKBONE|DICT|INTERRES
   138   69  147 1    
   139   70   71 2    
   140   70   72 1    
   141   72   73 1    
   142   72   74 1    
   143   72  148 1    
   144   73  149 1    
   145   73  150 1    
   146   73  151 1    
   147   74   75 am   BACKBONE|DICT|INTERRES
   148   74  152 1    
   149   75   76 2    
   150   75   77 1    
   151   77   78 1    
   152   77   79 1    
   153   77  153 1    
   154   78  154 1    
   155   78  155 1    
   156   78  156 1    
   157   79   80 am   BACKBONE|DICT|INTERRES
   158   79  157 1    
   159   80   81 2    
@<TRIPOS>SUBSTRUCTURE
     1 UNK         1 GROUP             0       ****    0 ROOT    
