@<TRIPOS>MOLECULE
3R207
157   159    1
SMALL
USER_CHARGES


@<TRIPOS>ATOM
      1 CA        -46.7056  -31.5864    4.2802 C.3       0 UNK        -0.1975 
      2 C         -47.2684  -31.1696    5.6318 C.2       0 UNK         0.4852 
      3 O         -47.4448  -32.0233    6.5023 O.2       0 UNK        -0.5216 
      4 N         -47.5563  -29.8693    5.7960 N.am      1 UNK        -0.4461 
      5 CA        -48.0475  -29.2114    7.0169 C.3       1 UNK         0.0864 
      6 C6        -49.3270  -29.8822    7.5952 C.3       14 UNK        -0.0898 
      7 S7        -50.4755  -28.6887    8.3520 S.3       14 UNK        -0.2598 
      8 C8        -51.6725  -28.4251    7.0074 C.3       14 UNK         0.0286 
      9 C9        -52.7945  -27.4932    7.4433 C.ar      14 UNK        -0.0844 
     10 C10       -52.8551  -26.1763    6.9737 C.ar      14 UNK        -0.0881 
     11 C11       -53.8909  -25.3226    7.3757 C.ar      14 UNK        -0.0643 
     12 C12       -54.8703  -25.8046    8.2505 C.ar      14 UNK        -0.0930 
     13 C13       -54.8330  -27.1246    8.7103 C.ar      14 UNK        -0.0827 
     14 C14       -53.7917  -27.9627    8.3031 C.ar      14 UNK        -0.1249 
     15 C15       -55.9412  -27.6495    9.6137 C.3       14 UNK         0.0141 
     16 S16       -55.5220  -27.4766   11.3754 S.3       14 UNK        -0.2313 
     17 C17       -54.5537  -28.9923   11.6922 C.3       14 UNK        -0.0915 
     18 CA        -55.1515  -29.8679   12.8255 C.3       13 UNK         0.0968 
     19 C         -54.3826  -31.2134   12.9827 C.2       13 UNK         0.5732 
     20 N         -53.9373  -31.6066   14.1716 N.am      13 UNK        -0.7310 
     21 O         -54.1996  -31.9319   12.0028 O.2       13 UNK        -0.5035 
     22 N         -55.2823  -29.1213   14.0868 N.am      13 UNK        -0.4233 
     23 C         -56.2837  -29.2893   14.9598 C.2       13 UNK         0.4989 
     24 O         -57.2410  -30.0403   14.7613 O.2       13 UNK        -0.4996 
     25 CA        -56.2067  -28.4868   16.2750 C.3       12 UNK         0.0216 
     26 CB        -57.1176  -29.0626   17.3806 C.3       12 UNK        -0.1964 
     27 N         -54.8418  -28.3042   16.7842 N.am      12 UNK        -0.4276 
     28 C         -53.9488  -29.2587   17.0960 C.2       12 UNK         0.5020 
     29 O         -54.1669  -30.4630   16.9538 O.2       12 UNK        -0.5489 
     30 CA        -52.5744  -28.8004   17.6250 C.3       11 UNK         0.0294 
     31 CB        -51.4340  -29.6666   17.0583 C.3       11 UNK        -0.2019 
     32 N         -52.3154  -27.4026   17.2788 N.am      11 UNK        -0.4493 
     33 C         -52.3791  -26.3587   18.1170 C.2       11 UNK         0.4932 
     34 O         -52.5699  -26.4640   19.3283 O.2       11 UNK        -0.5029 
     35 CA        -52.2398  -24.9524   17.4986 C.3       10 UNK         0.0280 
     36 CB        -50.8154  -24.4156   17.7075 C.3       10 UNK        -0.1976 
     37 N         -52.5756  -24.9091   16.0699 N.am      10 UNK        -0.4242 
     38 C         -53.8062  -25.1284   15.5752 C.2       10 UNK         0.5072 
     39 O         -54.7972  -25.3031   16.2845 O.2       10 UNK        -0.5224 
     40 CA        -53.9568  -25.2650   14.0475 C.3       9 UNK         0.0343 
     41 CB        -54.4048  -23.9348   13.4252 C.3       9 UNK        -0.2003 
     42 N         -52.7406  -25.7358   13.3783 N.am      9 UNK        -0.4272 
     43 C         -52.1318  -26.9049   13.6364 C.2       9 UNK         0.4988 
     44 O         -52.6226  -27.7637   14.3699 O.2       9 UNK        -0.5108 
     45 CA        -50.7305  -27.1520   13.0398 C.3       8 UNK         0.0248 
     46 CB        -50.8117  -28.1595   11.8846 C.3       8 UNK        -0.2001 
     47 N         -50.0500  -25.9424   12.5700 N.am      8 UNK        -0.4140 
     48 C         -49.7668  -24.8594   13.3114 C.2       8 UNK         0.5028 
     49 O         -49.9621  -24.7945   14.5255 O.2       8 UNK        -0.5428 
     50 CA        -49.2686  -23.6085   12.5616 C.3       7 UNK         0.0264 
     51 CB        -47.7521  -23.4494   12.7333 C.3       7 UNK        -0.1988 
     52 N         -49.6201  -23.5948   11.1327 N.am      7 UNK        -0.4454 
     53 C         -50.8790  -23.6214   10.6632 C.2       7 UNK         0.5027 
     54 O         -51.8621  -23.5747   11.4038 O.2       7 UNK        -0.5083 
     55 CA        -51.1094  -23.7917    9.1472 C.3       6 UNK         0.0844 
     56 C56       -52.1096  -22.7438    8.5984 C.3       14 UNK        -0.0967 
     57 S57       -52.4433  -22.9652    6.8153 S.3       14 UNK        -0.2604 
     58 C58       -54.0087  -23.9012    6.8274 C.3       14 UNK         0.0134 
     59 N         -49.8918  -23.8663    8.3348 N.am      6 UNK        -0.4116 
     60 C         -49.0747  -24.9192    8.2528 C.2       5 UNK         0.5034 
     61 O         -49.0625  -25.8461    9.0618 O.2       5 UNK        -0.5045 
     62 CA        -48.1221  -24.9525    7.0495 C.3       5 UNK         0.0224 
     63 CB        -48.8479  -24.7231    5.7068 C.3       5 UNK        -0.1978 
     64 N         -46.9684  -24.0682    7.2117 N.am      5 UNK        -0.4737 
     65 C         -46.9353  -22.7298    7.2933 C.2       4 UNK         0.5027 
     66 O         -47.9287  -22.0116    7.1687 O.2       4 UNK        -0.5211 
     67 CA        -45.5500  -22.0952    7.5575 C.3       4 UNK         0.0297 
     68 CB        -45.6489  -20.7086    8.2294 C.3       4 UNK        -0.1993 
     69 N         -44.6394  -22.9833    8.2997 N.am      4 UNK        -0.4486 
     70 C         -44.8405  -23.4765    9.5302 C.2       3 UNK         0.4961 
     71 O         -45.7765  -23.1527   10.2608 O.2       3 UNK        -0.5105 
     72 CA        -43.8679  -24.5709   10.0026 C.3       3 UNK         0.0299 
     73 CB        -43.0747  -24.1054   11.2345 C.3       3 UNK        -0.1972 
     74 N         -44.5975  -25.8013   10.3266 N.am      3 UNK        -0.4305 
     75 C         -45.3189  -26.5132    9.4481 C.2       2 UNK         0.5006 
     76 O         -45.3307  -26.2688    8.2381 O.2       2 UNK        -0.5106 
     77 CA        -46.1656  -27.6723   10.0168 C.3       2 UNK         0.0296 
     78 CB        -46.8926  -27.2830   11.3191 C.3       2 UNK        -0.2002 
     79 N         -47.1617  -28.1248    9.0392 N.am      2 UNK        -0.4032 
     80 C         -46.9245  -29.0175    8.0679 C.2       1 UNK         0.5000 
     81 O         -45.8632  -29.6426    7.9751 O.2       1 UNK        -0.5238 
     82 H82       -47.3554  -32.3278    3.8158 H         1 UNK         0.0889 
     83 H83       -45.7182  -32.0298    4.4068 H         1 UNK         0.0889 
     84 H84       -46.6127  -30.7422    3.5971 H         1 UNK         0.0889 
     85 H85       -47.3563  -29.2381    5.0326 H         1 UNK         0.3028 
     86 H86       -48.3193  -28.2115    6.6772 H         1 UNK         0.0864 
     87 H87       -49.8699  -30.4103    6.8098 H         1 UNK         0.0720 
     88 H88       -49.0737  -30.6457    8.3332 H         1 UNK         0.0720 
     89 H89       -51.1527  -28.0240    6.1359 H         1 UNK         0.0814 
     90 H90       -52.0971  -29.3832    6.7036 H         1 UNK         0.0814 
     91 H91       -52.0991  -25.8138    6.2914 H         1 UNK         0.1469 
     92 H92       -55.6811  -25.1580    8.5573 H         1 UNK         0.1381 
     93 H93       -53.7542  -28.9854    8.6510 H         1 UNK         0.1206 
     94 H94       -56.8624  -27.0966    9.4240 H         1 UNK         0.0813 
     95 H95       -56.1674  -28.6906    9.3790 H         1 UNK         0.0813 
     96 H96       -54.4844  -29.5705   10.7707 H         1 UNK         0.0638 
     97 H97       -53.5361  -28.7000   11.9348 H         1 UNK         0.0638 
     98 H98       -56.1502  -30.1555   12.4921 H         1 UNK         0.0568 
     99 H99       -54.1024  -31.0591   15.0090 H         1 UNK         0.3450 
    100 H100      -53.4502  -32.4851   14.2416 H         1 UNK         0.3450 
    101 H101      -54.4922  -28.5336   14.3306 H         1 UNK         0.2987 
    102 H102      -56.5749  -27.4885   16.0339 H         1 UNK         0.0766 
    103 H103      -57.0683  -28.4611   18.2883 H         1 UNK         0.0798 
    104 H104      -58.1608  -29.0790   17.0626 H         1 UNK         0.0798 
    105 H105      -56.8398  -30.0848   17.6400 H         1 UNK         0.0798 
    106 H106      -54.5618  -27.3369   16.9016 H         1 UNK         0.3198 
    107 H107      -52.5919  -28.9260   18.7094 H         1 UNK         0.0843 
    108 H108      -51.5459  -30.7091   17.3590 H         1 UNK         0.0831 
    109 H109      -50.4625  -29.3303   17.4206 H         1 UNK         0.0831 
    110 H110      -51.4128  -29.6430   15.9680 H         1 UNK         0.0831 
    111 H111      -52.1958  -27.2272   16.2867 H         1 UNK         0.3133 
    112 H112      -52.9325  -24.2917   18.0240 H         1 UNK         0.0566 
    113 H113      -50.0704  -25.0516   17.2276 H         1 UNK         0.0814 
    114 H114      -50.5678  -24.3688   18.7688 H         1 UNK         0.0814 
    115 H115      -50.7056  -23.4087   17.3042 H         1 UNK         0.0814 
    116 H116      -51.7955  -24.7976   15.4277 H         1 UNK         0.3091 
    117 H117      -54.7383  -26.0050   13.8670 H         1 UNK         0.0702 
    118 H118      -54.5941  -24.0438   12.3568 H         1 UNK         0.0785 
    119 H119      -53.6524  -23.1557   13.5543 H         1 UNK         0.0785 
    120 H120      -55.3285  -23.5794   13.8837 H         1 UNK         0.0785 
    121 H121      -52.3009  -25.0808   12.7400 H         1 UNK         0.2998 
    122 H122      -50.1152  -27.5838   13.8314 H         1 UNK         0.0697 
    123 H123      -51.4453  -27.7911   11.0763 H         1 UNK         0.0825 
    124 H124      -51.2258  -29.1101   12.2230 H         1 UNK         0.0825 
    125 H125      -49.8301  -28.3732   11.4642 H         1 UNK         0.0825 
    126 H126      -49.8594  -25.8938   11.5782 H         1 UNK         0.3029 
    127 H127      -49.7542  -22.7474   13.0257 H         1 UNK         0.0897 
    128 H128      -47.4026  -22.5101   12.3047 H         1 UNK         0.0792 
    129 H129      -47.4761  -23.4424   13.7887 H         1 UNK         0.0792 
    130 H130      -47.2022  -24.2623   12.2590 H         1 UNK         0.0792 
    131 H131      -48.8579  -23.6500   10.4710 H         1 UNK         0.3086 
    132 H132      -51.5942  -24.7657    9.0588 H         1 UNK         0.0583 
    133 H133      -53.0542  -22.7867    9.1446 H         1 UNK         0.1020 
    134 H134      -51.7206  -21.7348    8.7472 H         1 UNK         0.1020 
    135 H135      -54.7506  -23.3293    7.3869 H         1 UNK         0.0694 
    136 H136      -54.3798  -23.9617    5.8037 H         1 UNK         0.0694 
    137 H137      -49.7431  -23.1095    7.6780 H         1 UNK         0.2989 
    138 H138      -47.7103  -25.9605    7.0159 H         1 UNK         0.1055 
    139 H139      -48.1728  -24.8780    4.8653 H         1 UNK         0.0806 
    140 H140      -49.2610  -23.7183    5.6174 H         1 UNK         0.0806 
    141 H141      -49.6753  -25.4239    5.5888 H         1 UNK         0.0806 
    142 H142      -46.1025  -24.5652    7.3982 H         1 UNK         0.3061 
    143 H143      -45.0979  -21.9505    6.5752 H         1 UNK         0.0734 
    144 H144      -46.1964  -20.0075    7.5984 H         1 UNK         0.0832 
    145 H145      -46.1711  -20.7564    9.1854 H         1 UNK         0.0832 
    146 H146      -44.6622  -20.2808    8.4061 H         1 UNK         0.0832 
    147 H147      -43.8453  -23.3268    7.7756 H         1 UNK         0.3156 
    148 H148      -43.1601  -24.7974    9.2024 H         1 UNK         0.0589 
    149 H149      -43.7306  -23.8827   12.0774 H         1 UNK         0.0808 
    150 H150      -42.3581  -24.8615   11.5558 H         1 UNK         0.0808 
    151 H151      -42.5106  -23.1983   11.0136 H         1 UNK         0.0808 
    152 H152      -44.6480  -26.0480   11.3038 H         1 UNK         0.3098 
    153 H153      -45.4826  -28.4933   10.2440 H         1 UNK         0.0720 
    154 H154      -47.5096  -28.1038   11.6830 H         1 UNK         0.0791 
    155 H155      -46.1933  -27.0439   12.1205 H         1 UNK         0.0791 
    156 H156      -47.5375  -26.4168   11.1746 H         1 UNK         0.0791 
    157 H157      -48.0360  -27.6075    9.0314 H         1 UNK         0.3028 
@<TRIPOS>BOND
     1    1    2 1    
     2    1   82 1    
     3    1   83 1    
     4    1   84 1    
     5    2    3 2    
     6    2    4 am   BACKBONE|DICT|INTERRES
     7    4    5 1    
     8    4   85 1    
     9    5    6 1    
    10    5   80 1    
    11    5   86 1    
    12    6    7 1    
    13    6   87 1    
    14    6   88 1    
    15    7    8 1    
    16    8    9 1    
    17    8   89 1    
    18    8   90 1    
    19    9   10 ar   
    20    9   14 ar   
    21   10   11 ar   
    22   10   91 1    
    23   11   12 ar   
    24   11   58 1    
    25   12   13 ar   
    26   12   92 1    
    27   13   14 ar   
    28   13   15 1    
    29   14   93 1    
    30   15   16 1    
    31   15   94 1    
    32   15   95 1    
    33   16   17 1    
    34   17   18 1    
    35   17   96 1    
    36   17   97 1    
    37   18   19 1    
    38   18   22 1    
    39   18   98 1    
    40   19   20 am   BACKBONE|DICT|INTERRES
    41   19   21 2    
    42   20   99 1    
    43   20  100 1    
    44   22   23 am   BACKBONE|DICT|INTERRES
    45   22  101 1    
    46   23   24 2    
    47   23   25 1    
    48   25   26 1    
    49   25   27 1    
    50   25  102 1    
    51   26  103 1    
    52   26  104 1    
    53   26  105 1    
    54   27   28 am   BACKBONE|DICT|INTERRES
    55   27  106 1    
    56   28   29 2    
    57   28   30 1    
    58   30   31 1    
    59   30   32 1    
    60   30  107 1    
    61   31  108 1    
    62   31  109 1    
    63   31  110 1    
    64   32   33 am   BACKBONE|DICT|INTERRES
    65   32  111 1    
    66   33   34 2    
    67   33   35 1    
    68   35   36 1    
    69   35   37 1    
    70   35  112 1    
    71   36  113 1    
    72   36  114 1    
    73   36  115 1    
    74   37   38 am   BACKBONE|DICT|INTERRES
    75   37  116 1    
    76   38   39 2    
    77   38   40 1    
    78   40   41 1    
    79   40   42 1    
    80   40  117 1    
    81   41  118 1    
    82   41  119 1    
    83   41  120 1    
    84   42   43 am   BACKBONE|DICT|INTERRES
    85   42  121 1    
    86   43   44 2    
    87   43   45 1    
    88   45   46 1    
    89   45   47 1    
    90   45  122 1    
    91   46  123 1    
    92   46  124 1    
    93   46  125 1    
    94   47   48 am   BACKBONE|DICT|INTERRES
    95   47  126 1    
    96   48   49 2    
    97   48   50 1    
    98   50   51 1    
    99   50   52 1    
   100   50  127 1    
   101   51  128 1    
   102   51  129 1    
   103   51  130 1    
   104   52   53 am   BACKBONE|DICT|INTERRES
   105   52  131 1    
   106   53   54 2    
   107   53   55 1    
   108   55   56 1    
   109   55   59 1    
   110   55  132 1    
   111   56   57 1    
   112   56  133 1    
   113   56  134 1    
   114   57   58 1    
   115   58  135 1    
   116   58  136 1    
   117   59   60 am   BACKBONE|DICT|INTERRES
   118   59  137 1    
   119   60   61 2    
   120   60   62 1    
   121   62   63 1    
   122   62   64 1    
   123   62  138 1    
   124   63  139 1    
   125   63  140 1    
   126   63  141 1    
   127   64   65 am   BACKBONE|DICT|INTERRES
   128   64  142 1    
   129   65   66 2    
   130   65   67 1    
   131   67   68 1    
   132   67   69 1    
   133   67  143 1    
   134   68  144 1    
   135   68  145 1    
   136   68  146 1    
   137   69   70 am   BACKBONE|DICT|INTERRES
   138   69  147 1    
   139   70   71 2    
   140   70   72 1    
   141   72   73 1    
   142   72   74 1    
   143   72  148 1    
   144   73  149 1    
   145   73  150 1    
   146   73  151 1    
   147   74   75 am   BACKBONE|DICT|INTERRES
   148   74  152 1    
   149   75   76 2    
   150   75   77 1    
   151   77   78 1    
   152   77   79 1    
   153   77  153 1    
   154   78  154 1    
   155   78  155 1    
   156   78  156 1    
   157   79   80 am   BACKBONE|DICT|INTERRES
   158   79  157 1    
   159   80   81 2    
@<TRIPOS>SUBSTRUCTURE
     1 UNK         1 GROUP             0       ****    0 ROOT    
