@<TRIPOS>MOLECULE
3R207
157   159    1
SMALL
USER_CHARGES


@<TRIPOS>ATOM
      1 CA        -47.1175  -29.4019    9.1868 C.3       0 UNK        -0.1975 
      2 C         -47.7300  -28.5641    8.0754 C.2       0 UNK         0.4852 
      3 O         -47.5909  -27.3410    8.0895 O.2       0 UNK        -0.5216 
      4 N         -48.3975  -29.2181    7.1135 N.am      1 UNK        -0.4461 
      5 CA        -49.1036  -28.6191    5.9694 C.3       1 UNK         0.0864 
      6 C6        -50.3490  -27.7862    6.3795 C.3       14 UNK        -0.0898 
      7 S7        -51.5646  -28.7968    7.2916 S.3       14 UNK        -0.2598 
      8 C8        -51.5048  -28.0465    8.9476 C.3       14 UNK         0.0286 
      9 C9        -52.5425  -26.9447    9.0952 C.ar      14 UNK        -0.0844 
     10 C10       -52.2560  -25.6388    8.6913 C.ar      14 UNK        -0.0881 
     11 C11       -53.2205  -24.6315    8.8039 C.ar      14 UNK        -0.0643 
     12 C12       -54.4706  -24.9447    9.3497 C.ar      14 UNK        -0.0930 
     13 C13       -54.7809  -26.2487    9.7550 C.ar      14 UNK        -0.0827 
     14 C14       -53.8032  -27.2434    9.6186 C.ar      14 UNK        -0.1249 
     15 C15       -56.1901  -26.5196   10.2998 C.3       14 UNK         0.0141 
     16 S16       -56.6390  -28.2697   10.6041 S.3       14 UNK        -0.2313 
     17 C17       -55.7746  -28.5658   12.1799 C.3       14 UNK        -0.0915 
     18 CA        -56.0961  -29.8974   12.9012 C.3       13 UNK         0.0968 
     19 C         -55.7621  -31.1479   12.0425 C.2       13 UNK         0.5732 
     20 N         -56.7656  -31.8002   11.4715 N.am      13 UNK        -0.7310 
     21 O         -54.6011  -31.5161   11.8723 O.2       13 UNK        -0.5035 
     22 N         -55.3646  -29.9245   14.1702 N.am      13 UNK        -0.4233 
     23 C         -55.6026  -30.7389   15.2029 C.2       13 UNK         0.4989 
     24 O         -56.5513  -31.5222   15.2576 O.2       13 UNK        -0.4996 
     25 CA        -54.6167  -30.6598   16.3803 C.3       12 UNK         0.0216 
     26 CB        -53.4012  -31.5652   16.1200 C.3       12 UNK        -0.1964 
     27 N         -54.1550  -29.2865   16.6080 N.am      12 UNK        -0.4276 
     28 C         -54.6713  -28.4486   17.5183 C.2       12 UNK         0.5020 
     29 O         -55.5577  -28.7651   18.3131 O.2       12 UNK        -0.5489 
     30 CA        -54.1125  -27.0112   17.5625 C.3       11 UNK         0.0294 
     31 CB        -52.9706  -26.9126   18.5865 C.3       11 UNK        -0.2019 
     32 N         -53.6360  -26.5173   16.2685 N.am      11 UNK        -0.4493 
     33 C         -54.4063  -26.3293   15.1876 C.2       11 UNK         0.4932 
     34 O         -55.6303  -26.4556   15.1896 O.2       11 UNK        -0.5029 
     35 CA        -53.6908  -25.9805   13.8692 C.3       10 UNK         0.0280 
     36 CB        -53.6913  -24.4640   13.6427 C.3       10 UNK        -0.1976 
     37 N         -52.3292  -26.5226   13.7574 N.am      10 UNK        -0.4242 
     38 C         -52.0130  -27.8268   13.8227 C.2       10 UNK         0.5072 
     39 O         -52.8372  -28.7200   14.0149 O.2       10 UNK        -0.5224 
     40 CA        -50.5286  -28.1998   13.7099 C.3       9 UNK         0.0343 
     41 CB        -50.1132  -28.3651   12.2415 C.3       9 UNK        -0.2003 
     42 N         -49.6756  -27.2097   14.3675 N.am      9 UNK        -0.4272 
     43 C         -49.4682  -27.1806   15.6924 C.2       9 UNK         0.4988 
     44 O         -49.9168  -28.0181   16.4757 O.2       9 UNK        -0.5108 
     45 CA        -48.6438  -26.0063   16.2439 C.3       8 UNK         0.0248 
     46 CB        -47.1436  -26.2286   15.9911 C.3       8 UNK        -0.2001 
     47 N         -49.0470  -24.7069   15.7010 N.am      8 UNK        -0.4140 
     48 C         -50.2573  -24.1488   15.8546 C.2       8 UNK         0.5028 
     49 O         -51.1971  -24.6823   16.4438 O.2       8 UNK        -0.5428 
     50 CA        -50.4693  -22.8016   15.1602 C.3       7 UNK         0.0264 
     51 CB        -49.4583  -21.7295   15.6098 C.3       7 UNK        -0.1988 
     52 N         -50.3798  -23.0373   13.7258 N.am      7 UNK        -0.4454 
     53 C         -50.9742  -22.3429   12.7545 C.2       7 UNK         0.5027 
     54 O         -51.6157  -21.3105   12.9570 O.2       7 UNK        -0.5083 
     55 CA        -50.8457  -22.9208   11.3217 C.3       6 UNK         0.0844 
     56 C56       -51.4080  -21.9490   10.2522 C.3       14 UNK        -0.0967 
     57 S57       -51.2844  -22.5907    8.5474 S.3       14 UNK        -0.2604 
     58 C58       -52.9677  -23.2296    8.2510 C.3       14 UNK         0.0134 
     59 N         -49.4874  -23.3722   10.9930 N.am      6 UNK        -0.4116 
     60 C         -48.8468  -24.4514   11.4582 C.2       5 UNK         0.5034 
     61 O         -49.2919  -25.1645   12.3629 O.2       5 UNK        -0.5045 
     62 CA        -47.4814  -24.7764   10.8189 C.3       5 UNK         0.0224 
     63 CB        -46.9306  -26.1383   11.2796 C.3       5 UNK        -0.1978 
     64 N         -47.5158  -24.7571    9.3521 N.am      5 UNK        -0.4737 
     65 C         -47.5410  -23.6610    8.5808 C.2       4 UNK         0.5027 
     66 O         -47.5831  -22.5160    9.0357 O.2       4 UNK        -0.5211 
     67 CA        -47.5088  -23.8969    7.0592 C.3       4 UNK         0.0297 
     68 CB        -47.3588  -22.5966    6.2426 C.3       4 UNK        -0.1993 
     69 N         -46.4881  -24.8807    6.6847 N.am      4 UNK        -0.4486 
     70 C         -45.1649  -24.8124    6.9059 C.2       3 UNK         0.4961 
     71 O         -44.5899  -23.8225    7.3598 O.2       3 UNK        -0.5105 
     72 CA        -44.3315  -26.0717    6.6018 C.3       3 UNK         0.0299 
     73 CB        -43.9332  -26.7706    7.9129 C.3       3 UNK        -0.1972 
     74 N         -45.0314  -27.0327    5.7475 N.am      3 UNK        -0.4305 
     75 C         -45.1646  -26.9187    4.4188 C.2       2 UNK         0.5006 
     76 O         -44.6418  -26.0262    3.7505 O.2       2 UNK        -0.5106 
     77 CA        -46.0419  -27.9710    3.7156 C.3       2 UNK         0.0296 
     78 CB        -45.1729  -29.1134    3.1646 C.3       2 UNK        -0.2002 
     79 N         -47.0949  -28.5307    4.5719 N.am      2 UNK        -0.4032 
     80 C         -48.1342  -27.8358    5.0594 C.2       1 UNK         0.5000 
     81 O         -48.3051  -26.6328    4.8517 O.2       1 UNK        -0.5238 
     82 H82       -46.0957  -29.0797    9.3840 H         1 UNK         0.0889 
     83 H83       -47.0940  -30.4610    8.9314 H         1 UNK         0.0889 
     84 H84       -47.6946  -29.2853   10.1029 H         1 UNK         0.0889 
     85 H85       -48.4702  -30.2243    7.1749 H         1 UNK         0.3028 
     86 H86       -49.4625  -29.4529    5.3633 H         1 UNK         0.0864 
     87 H87       -50.8524  -27.3924    5.4946 H         1 UNK         0.0720 
     88 H88       -50.0551  -26.9175    6.9696 H         1 UNK         0.0720 
     89 H89       -50.5050  -27.6660    9.1620 H         1 UNK         0.0814 
     90 H90       -51.6951  -28.8305    9.6810 H         1 UNK         0.0814 
     91 H91       -51.2908  -25.4130    8.2612 H         1 UNK         0.1469 
     92 H92       -55.2246  -24.1730    9.4275 H         1 UNK         0.1381 
     93 H93       -54.0128  -28.2652    9.8967 H         1 UNK         0.1206 
     94 H94       -56.3299  -25.9507   11.2202 H         1 UNK         0.0813 
     95 H95       -56.9127  -26.1215    9.5860 H         1 UNK         0.0813 
     96 H96       -54.7005  -28.4824   12.0140 H         1 UNK         0.0638 
     97 H97       -56.0524  -27.7466   12.8424 H         1 UNK         0.0638 
     98 H98       -57.1630  -29.9076   13.1328 H         1 UNK         0.0568 
     99 H99       -56.5648  -32.6077   10.9030 H         1 UNK         0.3450 
    100 H100      -57.7188  -31.4954   11.5914 H         1 UNK         0.3450 
    101 H101      -54.4964  -29.3944   14.1725 H         1 UNK         0.2987 
    102 H102      -55.1289  -31.0338   17.2694 H         1 UNK         0.0766 
    103 H103      -53.7118  -32.5989   15.9621 H         1 UNK         0.0798 
    104 H104      -52.7150  -31.5589   16.9671 H         1 UNK         0.0798 
    105 H105      -52.8437  -31.2536   15.2355 H         1 UNK         0.0798 
    106 H106      -53.4618  -28.9302   15.9589 H         1 UNK         0.3198 
    107 H107      -54.9230  -26.3556   17.8881 H         1 UNK         0.0843 
    108 H108      -52.1163  -27.5266   18.2977 H         1 UNK         0.0831 
    109 H109      -53.2977  -27.2488   19.5714 H         1 UNK         0.0831 
    110 H110      -52.6218  -25.8852   18.6941 H         1 UNK         0.0831 
    111 H111      -52.6503  -26.2870   16.2024 H         1 UNK         0.3133 
    112 H112      -54.2660  -26.4168   13.0554 H         1 UNK         0.0566 
    113 H113      -53.3294  -24.2141   12.6471 H         1 UNK         0.0814 
    114 H114      -53.0823  -23.9449   14.3810 H         1 UNK         0.0814 
    115 H115      -54.7021  -24.0608   13.7193 H         1 UNK         0.0814 
    116 H116      -51.5817  -25.8633   13.6051 H         1 UNK         0.3091 
    117 H117      -50.3895  -29.1656   14.2011 H         1 UNK         0.0702 
    118 H118      -49.0534  -28.6028   12.1554 H         1 UNK         0.0785 
    119 H119      -50.3078  -27.4655   11.6577 H         1 UNK         0.0785 
    120 H120      -50.6661  -29.1836   11.7802 H         1 UNK         0.0785 
    121 H121      -49.2926  -26.4770   13.7773 H         1 UNK         0.2998 
    122 H122      -48.8043  -25.9726   17.3237 H         1 UNK         0.0697 
    123 H123      -46.9059  -26.2295   14.9268 H         1 UNK         0.0825 
    124 H124      -46.8178  -27.1871   16.3980 H         1 UNK         0.0825 
    125 H125      -46.5415  -25.4558   16.4692 H         1 UNK         0.0825 
    126 H126      -48.3401  -24.1934   15.1956 H         1 UNK         0.3029 
    127 H127      -51.4750  -22.4547   15.4078 H         1 UNK         0.0897 
    128 H128      -48.4377  -21.9723   15.3131 H         1 UNK         0.0792 
    129 H129      -49.4686  -21.6141   16.6944 H         1 UNK         0.0792 
    130 H130      -49.7030  -20.7578   15.1803 H         1 UNK         0.0792 
    131 H131      -49.8979  -23.8869   13.4369 H         1 UNK         0.3086 
    132 H132      -51.4761  -23.8114   11.2994 H         1 UNK         0.0583 
    133 H133      -52.4501  -21.7049   10.4668 H         1 UNK         0.1020 
    134 H134      -50.8676  -21.0010   10.2862 H         1 UNK         0.1020 
    135 H135      -53.6977  -22.5183    8.6400 H         1 UNK         0.0694 
    136 H136      -53.1277  -23.2656    7.1728 H         1 UNK         0.0694 
    137 H137      -49.0122  -22.8435   10.2667 H         1 UNK         0.2989 
    138 H138      -46.7855  -24.0047   11.1552 H         1 UNK         0.1055 
    139 H139      -47.5970  -26.9523   10.9954 H         1 UNK         0.0806 
    140 H140      -45.9521  -26.3396   10.8435 H         1 UNK         0.0806 
    141 H141      -46.8143  -26.1725   12.3633 H         1 UNK         0.0806 
    142 H142      -47.5137  -25.6659    8.8895 H         1 UNK         0.3061 
    143 H143      -48.4709  -24.3415    6.7990 H         1 UNK         0.0734 
    144 H144      -46.4382  -22.0661    6.4872 H         1 UNK         0.0832 
    145 H145      -47.3565  -22.7998    5.1719 H         1 UNK         0.0832 
    146 H146      -48.1878  -21.9165    6.4424 H         1 UNK         0.0832 
    147 H147      -46.8595  -25.7502    6.3201 H         1 UNK         0.3156 
    148 H148      -43.4187  -25.7514    6.0949 H         1 UNK         0.0589 
    149 H149      -43.3163  -27.6496    7.7259 H         1 UNK         0.0808 
    150 H150      -43.3551  -26.1005    8.5508 H         1 UNK         0.0808 
    151 H151      -44.8071  -27.0850    8.4841 H         1 UNK         0.0808 
    152 H152      -45.4985  -27.7966    6.2131 H         1 UNK         0.3098 
    153 H153      -46.5284  -27.4757    2.8724 H         1 UNK         0.0720 
    154 H154      -44.3966  -28.7281    2.5018 H         1 UNK         0.0791 
    155 H155      -45.7668  -29.8212    2.5858 H         1 UNK         0.0791 
    156 H156      -44.6748  -29.6650    3.9630 H         1 UNK         0.0791 
    157 H157      -47.0200  -29.5116    4.8019 H         1 UNK         0.3028 
@<TRIPOS>BOND
     1    1    2 1    
     2    1   82 1    
     3    1   83 1    
     4    1   84 1    
     5    2    3 2    
     6    2    4 am   BACKBONE|DICT|INTERRES
     7    4    5 1    
     8    4   85 1    
     9    5    6 1    
    10    5   80 1    
    11    5   86 1    
    12    6    7 1    
    13    6   87 1    
    14    6   88 1    
    15    7    8 1    
    16    8    9 1    
    17    8   89 1    
    18    8   90 1    
    19    9   10 ar   
    20    9   14 ar   
    21   10   11 ar   
    22   10   91 1    
    23   11   12 ar   
    24   11   58 1    
    25   12   13 ar   
    26   12   92 1    
    27   13   14 ar   
    28   13   15 1    
    29   14   93 1    
    30   15   16 1    
    31   15   94 1    
    32   15   95 1    
    33   16   17 1    
    34   17   18 1    
    35   17   96 1    
    36   17   97 1    
    37   18   19 1    
    38   18   22 1    
    39   18   98 1    
    40   19   20 am   BACKBONE|DICT|INTERRES
    41   19   21 2    
    42   20   99 1    
    43   20  100 1    
    44   22   23 am   BACKBONE|DICT|INTERRES
    45   22  101 1    
    46   23   24 2    
    47   23   25 1    
    48   25   26 1    
    49   25   27 1    
    50   25  102 1    
    51   26  103 1    
    52   26  104 1    
    53   26  105 1    
    54   27   28 am   BACKBONE|DICT|INTERRES
    55   27  106 1    
    56   28   29 2    
    57   28   30 1    
    58   30   31 1    
    59   30   32 1    
    60   30  107 1    
    61   31  108 1    
    62   31  109 1    
    63   31  110 1    
    64   32   33 am   BACKBONE|DICT|INTERRES
    65   32  111 1    
    66   33   34 2    
    67   33   35 1    
    68   35   36 1    
    69   35   37 1    
    70   35  112 1    
    71   36  113 1    
    72   36  114 1    
    73   36  115 1    
    74   37   38 am   BACKBONE|DICT|INTERRES
    75   37  116 1    
    76   38   39 2    
    77   38   40 1    
    78   40   41 1    
    79   40   42 1    
    80   40  117 1    
    81   41  118 1    
    82   41  119 1    
    83   41  120 1    
    84   42   43 am   BACKBONE|DICT|INTERRES
    85   42  121 1    
    86   43   44 2    
    87   43   45 1    
    88   45   46 1    
    89   45   47 1    
    90   45  122 1    
    91   46  123 1    
    92   46  124 1    
    93   46  125 1    
    94   47   48 am   BACKBONE|DICT|INTERRES
    95   47  126 1    
    96   48   49 2    
    97   48   50 1    
    98   50   51 1    
    99   50   52 1    
   100   50  127 1    
   101   51  128 1    
   102   51  129 1    
   103   51  130 1    
   104   52   53 am   BACKBONE|DICT|INTERRES
   105   52  131 1    
   106   53   54 2    
   107   53   55 1    
   108   55   56 1    
   109   55   59 1    
   110   55  132 1    
   111   56   57 1    
   112   56  133 1    
   113   56  134 1    
   114   57   58 1    
   115   58  135 1    
   116   58  136 1    
   117   59   60 am   BACKBONE|DICT|INTERRES
   118   59  137 1    
   119   60   61 2    
   120   60   62 1    
   121   62   63 1    
   122   62   64 1    
   123   62  138 1    
   124   63  139 1    
   125   63  140 1    
   126   63  141 1    
   127   64   65 am   BACKBONE|DICT|INTERRES
   128   64  142 1    
   129   65   66 2    
   130   65   67 1    
   131   67   68 1    
   132   67   69 1    
   133   67  143 1    
   134   68  144 1    
   135   68  145 1    
   136   68  146 1    
   137   69   70 am   BACKBONE|DICT|INTERRES
   138   69  147 1    
   139   70   71 2    
   140   70   72 1    
   141   72   73 1    
   142   72   74 1    
   143   72  148 1    
   144   73  149 1    
   145   73  150 1    
   146   73  151 1    
   147   74   75 am   BACKBONE|DICT|INTERRES
   148   74  152 1    
   149   75   76 2    
   150   75   77 1    
   151   77   78 1    
   152   77   79 1    
   153   77  153 1    
   154   78  154 1    
   155   78  155 1    
   156   78  156 1    
   157   79   80 am   BACKBONE|DICT|INTERRES
   158   79  157 1    
   159   80   81 2    
@<TRIPOS>SUBSTRUCTURE
     1 UNK         1 GROUP             0       ****    0 ROOT    
