@<TRIPOS>MOLECULE
3R207
157   159    1
SMALL
USER_CHARGES


@<TRIPOS>ATOM
      1 CA        -53.3151  -26.9202    4.0433 C.3       0 UNK        -0.1975 
      2 C         -52.3062  -26.7567    2.9103 C.2       0 UNK         0.4852 
      3 O         -52.6831  -26.3200    1.8239 O.2       0 UNK        -0.5216 
      4 N         -51.0243  -27.0846    3.1078 N.am      1 UNK        -0.4461 
      5 CA        -50.4021  -27.5659    4.3397 C.3       1 UNK         0.0864 
      6 C6        -50.4638  -29.1120    4.4447 C.3       14 UNK        -0.0898 
      7 S7        -50.1351  -29.7286    6.1307 S.3       14 UNK        -0.2598 
      8 C8        -51.8108  -29.8451    6.8331 C.3       14 UNK         0.0286 
      9 C9        -51.9388  -28.9778    8.0745 C.ar      14 UNK        -0.0844 
     10 C10       -52.2372  -27.6161    7.9610 C.ar      14 UNK        -0.0881 
     11 C11       -52.3442  -26.8133    9.1004 C.ar      14 UNK        -0.0643 
     12 C12       -52.1815  -27.3942   10.3603 C.ar      14 UNK        -0.0930 
     13 C13       -51.8864  -28.7532   10.4898 C.ar      14 UNK        -0.0827 
     14 C14       -51.7586  -29.5391    9.3416 C.ar      14 UNK        -0.1249 
     15 C15       -51.6828  -29.3677   11.8661 C.3       14 UNK         0.0141 
     16 S16       -53.0656  -30.4619   12.3118 S.3       14 UNK        -0.2313 
     17 C17       -52.5207  -31.0530   13.9505 C.3       14 UNK        -0.0915 
     18 CA        -53.6939  -31.2686   14.9451 C.3       13 UNK         0.0968 
     19 C         -53.1672  -31.7821   16.3174 C.2       13 UNK         0.5732 
     20 N         -53.3321  -31.0507   17.4132 N.am      13 UNK        -0.7310 
     21 O         -52.6013  -32.8706   16.3878 O.2       13 UNK        -0.5035 
     22 N         -54.5756  -30.0921   15.0116 N.am      13 UNK        -0.4233 
     23 C         -55.8305  -30.0854   15.4801 C.2       13 UNK         0.4989 
     24 O         -56.3849  -31.0659   15.9775 O.2       13 UNK        -0.4996 
     25 CA        -56.6069  -28.7604   15.3686 C.3       12 UNK         0.0216 
     26 CB        -56.5777  -28.0018   16.7059 C.3       12 UNK        -0.1964 
     27 N         -56.0973  -27.8861   14.3081 N.am      12 UNK        -0.4276 
     28 C         -56.2848  -28.0745   12.9939 C.2       12 UNK         0.5020 
     29 O         -56.9692  -28.9900   12.5347 O.2       12 UNK        -0.5489 
     30 CA        -55.5642  -27.1129   12.0252 C.3       11 UNK         0.0294 
     31 CB        -56.5006  -26.5840   10.9195 C.3       11 UNK        -0.2019 
     32 N         -54.8385  -26.0140   12.6804 N.am      11 UNK        -0.4493 
     33 C         -55.3268  -24.9694   13.3625 C.2       11 UNK         0.4932 
     34 O         -56.5273  -24.7688   13.5479 O.2       11 UNK        -0.5029 
     35 CA        -54.2765  -24.0271   13.9868 C.3       10 UNK         0.0280 
     36 CB        -54.9112  -22.7834   14.6368 C.3       10 UNK        -0.1976 
     37 N         -53.4305  -24.7025   14.9797 N.am      10 UNK        -0.4242 
     38 C         -52.4557  -25.5763   14.6977 C.2       10 UNK         0.5072 
     39 O         -52.2078  -25.9756   13.5603 O.2       10 UNK        -0.5224 
     40 CA        -51.6560  -26.1419   15.8706 C.3       9 UNK         0.0343 
     41 CB        -52.1101  -27.5750   16.2016 C.3       9 UNK        -0.2003 
     42 N         -50.2427  -26.1273   15.5042 N.am      9 UNK        -0.4272 
     43 C         -49.2299  -26.0891   16.3783 C.2       9 UNK         0.4988 
     44 O         -49.3751  -26.1625   17.5997 O.2       9 UNK        -0.5108 
     45 CA        -47.8145  -25.9072   15.8051 C.3       8 UNK         0.0248 
     46 CB        -47.2448  -27.2460   15.3083 C.3       8 UNK        -0.2001 
     47 N         -47.7567  -24.9032   14.7381 N.am      8 UNK        -0.4140 
     48 C         -47.9697  -23.5902   14.9204 C.2       8 UNK         0.5028 
     49 O         -48.1977  -23.0790   16.0177 O.2       8 UNK        -0.5428 
     50 CA        -47.9179  -22.6850   13.6777 C.3       7 UNK         0.0264 
     51 CB        -46.4736  -22.2427   13.3932 C.3       7 UNK        -0.1988 
     52 N         -48.4865  -23.3221   12.4883 N.am      7 UNK        -0.4454 
     53 C         -49.7945  -23.5601   12.3100 C.2       7 UNK         0.5027 
     54 O         -50.6638  -23.1538   13.0816 O.2       7 UNK        -0.5083 
     55 CA        -50.2092  -24.4033   11.0837 C.3       6 UNK         0.0844 
     56 C56       -50.6218  -23.5034    9.8943 C.3       14 UNK        -0.0967 
     57 S57       -51.1625  -24.4090    8.3995 S.3       14 UNK        -0.2604 
     58 C58       -52.6371  -25.3248    8.9606 C.3       14 UNK         0.0134 
     59 N         -49.2057  -25.4089   10.7206 N.am      6 UNK        -0.4116 
     60 C         -48.8672  -26.4525   11.4921 C.2       5 UNK         0.5034 
     61 O         -49.3615  -26.6892   12.5939 O.2       5 UNK        -0.5045 
     62 CA        -47.7304  -27.3451   10.9771 C.3       5 UNK         0.0224 
     63 CB        -48.2218  -28.3036    9.8792 C.3       5 UNK        -0.1978 
     64 N         -46.6097  -26.5415   10.4853 N.am      5 UNK        -0.4737 
     65 C         -45.7896  -25.8392   11.2806 C.2       4 UNK         0.5027 
     66 O         -45.8712  -25.8332   12.5082 O.2       4 UNK        -0.5211 
     67 CA        -44.7201  -24.9715   10.5950 C.3       4 UNK         0.0297 
     68 CB        -43.4527  -25.7964   10.3220 C.3       4 UNK        -0.1993 
     69 N         -45.1871  -24.3632    9.3471 N.am      4 UNK        -0.4486 
     70 C         -46.1717  -23.4571    9.2653 C.2       3 UNK         0.4961 
     71 O         -46.7692  -23.0039   10.2388 O.2       3 UNK        -0.5105 
     72 CA        -46.6009  -23.0218    7.8551 C.3       3 UNK         0.0299 
     73 CB        -45.7431  -21.8429    7.3694 C.3       3 UNK        -0.1972 
     74 N         -46.5597  -24.1054    6.8671 N.am      3 UNK        -0.4305 
     75 C         -47.2588  -25.2442    6.9595 C.2       2 UNK         0.5006 
     76 O         -47.9718  -25.5420    7.9210 O.2       2 UNK        -0.5106 
     77 CA        -47.1063  -26.2389    5.8091 C.3       2 UNK         0.0296 
     78 CB        -46.1021  -27.3447    6.1762 C.3       2 UNK        -0.2002 
     79 N         -48.4156  -26.8300    5.5629 N.am      2 UNK        -0.4032 
     80 C         -48.9589  -27.0329    4.3592 C.2       1 UNK         0.5000 
     81 O         -48.3757  -26.8159    3.2915 O.2       1 UNK        -0.5238 
     82 H82       -54.3316  -26.8055    3.6673 H         1 UNK         0.0889 
     83 H83       -53.1559  -26.1613    4.8087 H         1 UNK         0.0889 
     84 H84       -53.2452  -27.9054    4.4999 H         1 UNK         0.0889 
     85 H85       -50.3505  -26.9211    2.3690 H         1 UNK         0.3028 
     86 H86       -50.9182  -27.1182    5.1896 H         1 UNK         0.0864 
     87 H87       -49.7467  -29.5733    3.7626 H         1 UNK         0.0720 
     88 H88       -51.4373  -29.4826    4.1220 H         1 UNK         0.0720 
     89 H89       -52.5681  -29.5556    6.1050 H         1 UNK         0.0814 
     90 H90       -52.0164  -30.8882    7.0782 H         1 UNK         0.0814 
     91 H91       -52.3766  -27.1730    6.9865 H         1 UNK         0.1469 
     92 H92       -52.2734  -26.7879   11.2456 H         1 UNK         0.1381 
     93 H93       -51.5231  -30.5903    9.4379 H         1 UNK         0.1206 
     94 H94       -50.7520  -29.9364   11.8758 H         1 UNK         0.0813 
     95 H95       -51.5768  -28.5876   12.6226 H         1 UNK         0.0813 
     96 H96       -51.7994  -30.3474   14.3647 H         1 UNK         0.0638 
     97 H97       -51.9754  -31.9863   13.7985 H         1 UNK         0.0638 
     98 H98       -54.3007  -32.0839   14.5466 H         1 UNK         0.0568 
     99 H99       -52.9887  -31.3999   18.2938 H         1 UNK         0.3450 
    100 H100      -53.8083  -30.1656   17.3715 H         1 UNK         0.3450 
    101 H101      -54.2125  -29.2498   14.5954 H         1 UNK         0.2987 
    102 H102      -57.6457  -29.0080   15.1391 H         1 UNK         0.0766 
    103 H103      -56.9802  -28.6175   17.5117 H         1 UNK         0.0798 
    104 H104      -57.1839  -27.0966   16.6606 H         1 UNK         0.0798 
    105 H105      -55.5658  -27.7138   16.9913 H         1 UNK         0.0798 
    106 H106      -55.5637  -27.0784   14.5920 H         1 UNK         0.3198 
    107 H107      -54.8004  -27.7197   11.5369 H         1 UNK         0.0843 
    108 H108      -57.3343  -26.0139   11.3299 H         1 UNK         0.0831 
    109 H109      -56.9251  -27.4059   10.3418 H         1 UNK         0.0831 
    110 H110      -55.9642  -25.9430   10.2200 H         1 UNK         0.0831 
    111 H111      -53.8229  -26.1033   12.6955 H         1 UNK         0.3133 
    112 H112      -53.6353  -23.6798   13.1732 H         1 UNK         0.0566 
    113 H113      -55.5527  -23.0480   15.4784 H         1 UNK         0.0814 
    114 H114      -55.5243  -22.2372   13.9185 H         1 UNK         0.0814 
    115 H115      -54.1491  -22.0925   14.9982 H         1 UNK         0.0814 
    116 H116      -53.5937  -24.4548   15.9453 H         1 UNK         0.3091 
    117 H117      -51.8072  -25.5018   16.7425 H         1 UNK         0.0702 
    118 H118      -51.5556  -27.9853   17.0457 H         1 UNK         0.0785 
    119 H119      -51.9646  -28.2412   15.3518 H         1 UNK         0.0785 
    120 H120      -53.1669  -27.6001   16.4661 H         1 UNK         0.0785 
    121 H121      -50.0536  -26.0914   14.5047 H         1 UNK         0.2998 
    122 H122      -47.1745  -25.5564   16.6174 H         1 UNK         0.0697 
    123 H123      -46.2166  -27.1358   14.9632 H         1 UNK         0.0825 
    124 H124      -47.8302  -27.6597   14.4876 H         1 UNK         0.0825 
    125 H125      -47.2401  -27.9869   16.1087 H         1 UNK         0.0825 
    126 H126      -47.5236  -25.2378   13.8102 H         1 UNK         0.3029 
    127 H127      -48.5068  -21.7914   13.8964 H         1 UNK         0.0897 
    128 H128      -45.8346  -23.0889   13.1397 H         1 UNK         0.0792 
    129 H129      -46.0365  -21.7523   14.2641 H         1 UNK         0.0792 
    130 H130      -46.4321  -21.5323   12.5674 H         1 UNK         0.0792 
    131 H131      -47.8364  -23.5691   11.7467 H         1 UNK         0.3086 
    132 H132      -51.0984  -24.9456   11.3973 H         1 UNK         0.0583 
    133 H133      -51.4280  -22.8295   10.1911 H         1 UNK         0.1020 
    134 H134      -49.7863  -22.8630    9.6044 H         1 UNK         0.1020 
    135 H135      -53.0121  -24.9089    9.8971 H         1 UNK         0.0694 
    136 H136      -53.4340  -25.1850    8.2289 H         1 UNK         0.0694 
    137 H137      -48.7730  -25.3143    9.8072 H         1 UNK         0.2989 
    138 H138      -47.3733  -27.9475   11.8157 H         1 UNK         0.1055 
    139 H139      -48.9580  -28.9998   10.2805 H         1 UNK         0.0806 
    140 H140      -47.4051  -28.8995    9.4722 H         1 UNK         0.0806 
    141 H141      -48.6999  -27.7777    9.0524 H         1 UNK         0.0806 
    142 H142      -46.5377  -26.4255    9.4838 H         1 UNK         0.3061 
    143 H143      -44.4600  -24.1640   11.2826 H         1 UNK         0.0734 
    144 H144      -43.6409  -26.6097    9.6199 H         1 UNK         0.0832 
    145 H145      -42.6545  -25.1762    9.9138 H         1 UNK         0.0832 
    146 H146      -43.0742  -26.2429   11.2428 H         1 UNK         0.0832 
    147 H147      -44.7539  -24.6771    8.4911 H         1 UNK         0.3156 
    148 H148      -47.6372  -22.6833    7.9219 H         1 UNK         0.0589 
    149 H149      -46.1022  -21.4563    6.4155 H         1 UNK         0.0808 
    150 H150      -44.6969  -22.1255    7.2463 H         1 UNK         0.0808 
    151 H151      -45.7757  -21.0181    8.0829 H         1 UNK         0.0808 
    152 H152      -45.9887  -23.9494    6.0483 H         1 UNK         0.3098 
    153 H153      -46.7541  -25.7059    4.9232 H         1 UNK         0.0720 
    154 H154      -45.1141  -26.9285    6.3769 H         1 UNK         0.0791 
    155 H155      -45.9927  -28.0621    5.3627 H         1 UNK         0.0791 
    156 H156      -46.4145  -27.8952    7.0649 H         1 UNK         0.0791 
    157 H157      -48.9652  -26.9928    6.3977 H         1 UNK         0.3028 
@<TRIPOS>BOND
     1    1    2 1    
     2    1   82 1    
     3    1   83 1    
     4    1   84 1    
     5    2    3 2    
     6    2    4 am   BACKBONE|DICT|INTERRES
     7    4    5 1    
     8    4   85 1    
     9    5    6 1    
    10    5   80 1    
    11    5   86 1    
    12    6    7 1    
    13    6   87 1    
    14    6   88 1    
    15    7    8 1    
    16    8    9 1    
    17    8   89 1    
    18    8   90 1    
    19    9   10 ar   
    20    9   14 ar   
    21   10   11 ar   
    22   10   91 1    
    23   11   12 ar   
    24   11   58 1    
    25   12   13 ar   
    26   12   92 1    
    27   13   14 ar   
    28   13   15 1    
    29   14   93 1    
    30   15   16 1    
    31   15   94 1    
    32   15   95 1    
    33   16   17 1    
    34   17   18 1    
    35   17   96 1    
    36   17   97 1    
    37   18   19 1    
    38   18   22 1    
    39   18   98 1    
    40   19   20 am   BACKBONE|DICT|INTERRES
    41   19   21 2    
    42   20   99 1    
    43   20  100 1    
    44   22   23 am   BACKBONE|DICT|INTERRES
    45   22  101 1    
    46   23   24 2    
    47   23   25 1    
    48   25   26 1    
    49   25   27 1    
    50   25  102 1    
    51   26  103 1    
    52   26  104 1    
    53   26  105 1    
    54   27   28 am   BACKBONE|DICT|INTERRES
    55   27  106 1    
    56   28   29 2    
    57   28   30 1    
    58   30   31 1    
    59   30   32 1    
    60   30  107 1    
    61   31  108 1    
    62   31  109 1    
    63   31  110 1    
    64   32   33 am   BACKBONE|DICT|INTERRES
    65   32  111 1    
    66   33   34 2    
    67   33   35 1    
    68   35   36 1    
    69   35   37 1    
    70   35  112 1    
    71   36  113 1    
    72   36  114 1    
    73   36  115 1    
    74   37   38 am   BACKBONE|DICT|INTERRES
    75   37  116 1    
    76   38   39 2    
    77   38   40 1    
    78   40   41 1    
    79   40   42 1    
    80   40  117 1    
    81   41  118 1    
    82   41  119 1    
    83   41  120 1    
    84   42   43 am   BACKBONE|DICT|INTERRES
    85   42  121 1    
    86   43   44 2    
    87   43   45 1    
    88   45   46 1    
    89   45   47 1    
    90   45  122 1    
    91   46  123 1    
    92   46  124 1    
    93   46  125 1    
    94   47   48 am   BACKBONE|DICT|INTERRES
    95   47  126 1    
    96   48   49 2    
    97   48   50 1    
    98   50   51 1    
    99   50   52 1    
   100   50  127 1    
   101   51  128 1    
   102   51  129 1    
   103   51  130 1    
   104   52   53 am   BACKBONE|DICT|INTERRES
   105   52  131 1    
   106   53   54 2    
   107   53   55 1    
   108   55   56 1    
   109   55   59 1    
   110   55  132 1    
   111   56   57 1    
   112   56  133 1    
   113   56  134 1    
   114   57   58 1    
   115   58  135 1    
   116   58  136 1    
   117   59   60 am   BACKBONE|DICT|INTERRES
   118   59  137 1    
   119   60   61 2    
   120   60   62 1    
   121   62   63 1    
   122   62   64 1    
   123   62  138 1    
   124   63  139 1    
   125   63  140 1    
   126   63  141 1    
   127   64   65 am   BACKBONE|DICT|INTERRES
   128   64  142 1    
   129   65   66 2    
   130   65   67 1    
   131   67   68 1    
   132   67   69 1    
   133   67  143 1    
   134   68  144 1    
   135   68  145 1    
   136   68  146 1    
   137   69   70 am   BACKBONE|DICT|INTERRES
   138   69  147 1    
   139   70   71 2    
   140   70   72 1    
   141   72   73 1    
   142   72   74 1    
   143   72  148 1    
   144   73  149 1    
   145   73  150 1    
   146   73  151 1    
   147   74   75 am   BACKBONE|DICT|INTERRES
   148   74  152 1    
   149   75   76 2    
   150   75   77 1    
   151   77   78 1    
   152   77   79 1    
   153   77  153 1    
   154   78  154 1    
   155   78  155 1    
   156   78  156 1    
   157   79   80 am   BACKBONE|DICT|INTERRES
   158   79  157 1    
   159   80   81 2    
@<TRIPOS>SUBSTRUCTURE
     1 UNK         1 GROUP             0       ****    0 ROOT    
