@<TRIPOS>MOLECULE
3R207
157   159    1
SMALL
USER_CHARGES


@<TRIPOS>ATOM
      1 CA        -49.5607  -27.7200    9.3872 C.3       0 UNK        -0.1975 
      2 C         -49.6464  -28.3583    8.0104 C.2       0 UNK         0.4852 
      3 O         -49.8720  -29.5642    7.9036 O.2       0 UNK        -0.5216 
      4 N         -49.4417  -27.5692    6.9496 N.am      1 UNK        -0.4461 
      5 CA        -49.5112  -27.9940    5.5468 C.3       1 UNK         0.0864 
      6 C6        -50.0440  -26.8624    4.6279 C.3       14 UNK        -0.0898 
      7 S7        -51.7761  -26.4342    5.0075 S.3       14 UNK        -0.2598 
      8 C8        -51.5410  -25.0233    6.1363 C.3       14 UNK         0.0286 
      9 C9        -52.6538  -24.9043    7.1682 C.ar      14 UNK        -0.0844 
     10 C10       -53.2834  -23.6757    7.3800 C.ar      14 UNK        -0.0881 
     11 C11       -54.2270  -23.5248    8.4017 C.ar      14 UNK        -0.0643 
     12 C12       -54.5819  -24.6317    9.1812 C.ar      14 UNK        -0.0930 
     13 C13       -53.9677  -25.8700    8.9690 C.ar      14 UNK        -0.0827 
     14 C14       -52.9993  -25.9965    7.9702 C.ar      14 UNK        -0.1249 
     15 C15       -54.3274  -27.0722    9.8260 C.3       14 UNK         0.0141 
     16 S16       -53.1625  -27.2522   11.2120 S.3       14 UNK        -0.2313 
     17 C17       -52.8121  -29.0406   11.1738 C.3       14 UNK        -0.0915 
     18 CA        -53.8357  -29.8878   11.9763 C.3       13 UNK         0.0968 
     19 C         -53.5432  -31.4061   11.7860 C.2       13 UNK         0.5732 
     20 N         -53.0567  -32.1289   12.7898 N.am      13 UNK        -0.7310 
     21 O         -53.7694  -31.9391   10.7025 O.2       13 UNK        -0.5035 
     22 N         -53.9148  -29.4609   13.3809 N.am      13 UNK        -0.4233 
     23 C         -54.8652  -29.8337   14.2493 C.2       13 UNK         0.4989 
     24 O         -55.8805  -30.4495   13.9206 O.2       13 UNK        -0.4996 
     25 CA        -54.6415  -29.4681   15.7354 C.3       12 UNK         0.0216 
     26 CB        -55.2362  -30.5244   16.6909 C.3       12 UNK        -0.1964 
     27 N         -53.2367  -29.1931   16.0869 N.am      12 UNK        -0.4276 
     28 C         -52.1900  -30.0211   15.9367 C.2       12 UNK         0.5020 
     29 O         -52.2843  -31.1642   15.4865 O.2       12 UNK        -0.5489 
     30 CA        -50.7928  -29.4717   16.2629 C.3       11 UNK         0.0294 
     31 CB        -49.9927  -29.2880   14.9615 C.3       11 UNK        -0.2019 
     32 N         -50.8154  -28.1934   16.9800 N.am      11 UNK        -0.4493 
     33 C         -50.8190  -28.0733   18.3140 C.2       11 UNK         0.4932 
     34 O         -50.9082  -29.0300   19.0838 O.2       11 UNK        -0.5029 
     35 CA        -50.6800  -26.6584   18.8939 C.3       10 UNK         0.0280 
     36 CB        -49.2173  -26.1882   18.8193 C.3       10 UNK        -0.1976 
     37 N         -51.5356  -25.6899   18.2041 N.am      10 UNK        -0.4242 
     38 C         -52.4148  -24.8790   18.8122 C.2       10 UNK         0.5072 
     39 O         -52.6035  -24.8627   20.0299 O.2       10 UNK        -0.5224 
     40 CA        -53.2235  -23.9023   17.9326 C.3       9 UNK         0.0343 
     41 CB        -52.6022  -22.4968   17.9847 C.3       9 UNK        -0.2003 
     42 N         -53.3477  -24.3136   16.5329 N.am      9 UNK        -0.4272 
     43 C         -53.9876  -25.4118   16.1107 C.2       9 UNK         0.4988 
     44 O         -54.6096  -26.1692   16.8543 O.2       9 UNK        -0.5108 
     45 CA        -53.8836  -25.7588   14.6154 C.3       8 UNK         0.0248 
     46 CB        -55.1245  -25.2506   13.8638 C.3       8 UNK        -0.2001 
     47 N         -52.6770  -25.2809   13.9307 N.am      8 UNK        -0.4140 
     48 C         -51.3993  -25.4488   14.3032 C.2       8 UNK         0.5028 
     49 O         -51.0658  -25.9839   15.3619 O.2       8 UNK        -0.5428 
     50 CA        -50.3017  -24.9506   13.3426 C.3       7 UNK         0.0264 
     51 CB        -49.3929  -26.1146   12.9135 C.3       7 UNK        -0.1988 
     52 N         -50.8096  -24.2920   12.1358 N.am      7 UNK        -0.4454 
     53 C         -51.3739  -23.0803   12.0690 C.2       7 UNK         0.5027 
     54 O         -51.5274  -22.3459   13.0460 O.2       7 UNK        -0.5083 
     55 CA        -51.8561  -22.6391   10.6712 C.3       6 UNK         0.0844 
     56 C56       -52.9246  -21.5128   10.7417 C.3       14 UNK        -0.0967 
     57 S57       -53.5130  -20.9345    9.1102 S.3       14 UNK        -0.2604 
     58 C58       -54.8122  -22.1505    8.6969 C.3       14 UNK         0.0134 
     59 N         -50.7304  -22.3106    9.7903 N.am      6 UNK        -0.4116 
     60 C         -49.9010  -23.2040    9.2317 C.2       5 UNK         0.5034 
     61 O         -49.9872  -24.4168    9.4325 O.2       5 UNK        -0.5045 
     62 CA        -48.8038  -22.6689    8.2891 C.3       5 UNK         0.0224 
     63 CB        -48.5102  -21.1646    8.4675 C.3       5 UNK        -0.1978 
     64 N         -47.5552  -23.4173    8.4599 N.am      5 UNK        -0.4737 
     65 C         -47.2454  -24.5551    7.8282 C.2       4 UNK         0.5027 
     66 O         -47.9649  -25.1077    6.9918 O.2       4 UNK        -0.5211 
     67 CA        -45.9037  -25.1917    8.2035 C.3       4 UNK         0.0297 
     68 CB        -46.0346  -26.0813    9.4533 C.3       4 UNK        -0.1993 
     69 N         -45.4343  -25.9857    7.0734 N.am      4 UNK        -0.4486 
     70 C         -44.1614  -26.3084    6.8205 C.2       3 UNK         0.4961 
     71 O         -43.2178  -25.9769    7.5410 O.2       3 UNK        -0.5105 
     72 CA        -43.9081  -27.1314    5.5407 C.3       3 UNK         0.0299 
     73 CB        -42.4790  -27.7113    5.4666 C.3       3 UNK        -0.1972 
     74 N         -44.9119  -28.1818    5.3260 N.am      3 UNK        -0.4305 
     75 C         -45.1826  -29.2319    6.1151 C.2       2 UNK         0.5006 
     76 O         -44.6020  -29.4711    7.1754 O.2       2 UNK        -0.5106 
     77 CA        -46.3179  -30.1571    5.6337 C.3       2 UNK         0.0296 
     78 CB        -46.3078  -31.5220    6.3472 C.3       2 UNK        -0.2002 
     79 N         -47.6320  -29.5393    5.8187 N.am      2 UNK        -0.4032 
     80 C         -48.1327  -28.5232    5.1030 C.2       1 UNK         0.5000 
     81 O         -47.5341  -28.0009    4.1586 O.2       1 UNK        -0.5238 
     82 H82       -50.5596  -27.4878    9.7527 H         1 UNK         0.0889 
     83 H83       -48.9889  -26.7943    9.3624 H         1 UNK         0.0889 
     84 H84       -49.0815  -28.3951   10.0954 H         1 UNK         0.0889 
     85 H85       -49.1527  -26.6032    7.0884 H         1 UNK         0.3028 
     86 H86       -50.2042  -28.8340    5.4600 H         1 UNK         0.0864 
     87 H87       -50.0162  -27.1768    3.5829 H         1 UNK         0.0720 
     88 H88       -49.4154  -25.9720    4.6935 H         1 UNK         0.0720 
     89 H89       -51.4538  -24.1126    5.5421 H         1 UNK         0.0814 
     90 H90       -50.6021  -25.1247    6.6782 H         1 UNK         0.0814 
     91 H91       -53.0020  -22.8163    6.7869 H         1 UNK         0.1469 
     92 H92       -55.3111  -24.5239    9.9725 H         1 UNK         0.1381 
     93 H93       -52.5013  -26.9454    7.8256 H         1 UNK         0.1206 
     94 H94       -55.3386  -26.9724   10.2231 H         1 UNK         0.0813 
     95 H95       -54.3337  -27.9690    9.2052 H         1 UNK         0.0813 
     96 H96       -51.8085  -29.1869   11.5776 H         1 UNK         0.0638 
     97 H97       -52.7608  -29.3662   10.1331 H         1 UNK         0.0638 
     98 H98       -54.8196  -29.7155   11.5362 H         1 UNK         0.0568 
     99 H99       -52.8795  -33.1095   12.6439 H         1 UNK         0.3450 
    100 H100      -52.8585  -31.7135   13.6953 H         1 UNK         0.3450 
    101 H101      -53.1153  -28.9574   13.7297 H         1 UNK         0.2987 
    102 H102      -55.1908  -28.5407   15.8963 H         1 UNK         0.0766 
    103 H103      -54.7844  -31.5055   16.5409 H         1 UNK         0.0798 
    104 H104      -56.3104  -30.6344   16.5375 H         1 UNK         0.0798 
    105 H105      -55.0883  -30.2428   17.7335 H         1 UNK         0.0798 
    106 H106      -53.0531  -28.2793   16.4783 H         1 UNK         0.3198 
    107 H107      -50.2820  -30.2213   16.8715 H         1 UNK         0.0843 
    108 H108      -50.4783  -28.5846   14.2848 H         1 UNK         0.0831 
    109 H109      -49.8903  -30.2338   14.4273 H         1 UNK         0.0831 
    110 H110      -48.9859  -28.9213   15.1620 H         1 UNK         0.0831 
    111 H111      -50.7640  -27.3538   16.4017 H         1 UNK         0.3133 
    112 H112      -50.9552  -26.7243   19.9485 H         1 UNK         0.0566 
    113 H113      -48.8779  -26.0820   17.7880 H         1 UNK         0.0814 
    114 H114      -48.5517  -26.8981   19.3123 H         1 UNK         0.0814 
    115 H115      -49.0874  -25.2255   19.3140 H         1 UNK         0.0814 
    116 H116      -51.4480  -25.6439   17.1920 H         1 UNK         0.3091 
    117 H117      -54.2303  -23.8471   18.3520 H         1 UNK         0.0702 
    118 H118      -53.2099  -21.7729   17.4414 H         1 UNK         0.0785 
    119 H119      -51.5987  -22.4834   17.5570 H         1 UNK         0.0785 
    120 H120      -52.5228  -22.1426   19.0136 H         1 UNK         0.0785 
    121 H121      -52.8589  -23.7548   15.8483 H         1 UNK         0.2998 
    122 H122      -53.8686  -26.8450   14.5404 H         1 UNK         0.0697 
    123 H123      -55.1697  -24.1609   13.8509 H         1 UNK         0.0825 
    124 H124      -56.0413  -25.6095   14.3340 H         1 UNK         0.0825 
    125 H125      -55.1389  -25.5996   12.8314 H         1 UNK         0.0825 
    126 H126      -52.8268  -24.8475   13.0324 H         1 UNK         0.3029 
    127 H127      -49.6986  -24.2279   13.8960 H         1 UNK         0.0897 
    128 H128      -49.9523  -26.8867   12.3835 H         1 UNK         0.0792 
    129 H129      -48.9217  -26.5844   13.7779 H         1 UNK         0.0792 
    130 H130      -48.5915  -25.7728   12.2579 H         1 UNK         0.0792 
    131 H131      -50.6628  -24.7756   11.2533 H         1 UNK         0.3086 
    132 H132      -52.3422  -23.5172   10.2498 H         1 UNK         0.0583 
    133 H133      -53.7851  -21.8416   11.3275 H         1 UNK         0.1020 
    134 H134      -52.5226  -20.6437   11.2662 H         1 UNK         0.1020 
    135 H135      -55.5381  -22.1953    9.5103 H         1 UNK         0.0694 
    136 H136      -55.3544  -21.8021    7.8169 H         1 UNK         0.0694 
    137 H137      -50.5987  -21.3309    9.5889 H         1 UNK         0.2989 
    138 H138      -49.1704  -22.8194    7.2710 H         1 UNK         0.1055 
    139 H139      -48.2167  -20.9240    9.4904 H         1 UNK         0.0806 
    140 H140      -49.3775  -20.5536    8.2135 H         1 UNK         0.0806 
    141 H141      -47.7024  -20.8435    7.8093 H         1 UNK         0.0806 
    142 H142      -46.9175  -23.0666    9.1603 H         1 UNK         0.3061 
    143 H143      -45.1895  -24.3889    8.4001 H         1 UNK         0.0734 
    144 H144      -46.6314  -26.9707    9.2517 H         1 UNK         0.0832 
    145 H145      -45.0571  -26.4147    9.8021 H         1 UNK         0.0832 
    146 H146      -46.5068  -25.5449   10.2775 H         1 UNK         0.0832 
    147 H147      -46.1603  -26.2394    6.4144 H         1 UNK         0.3156 
    148 H148      -44.0195  -26.4338    4.7093 H         1 UNK         0.0589 
    149 H149      -42.3235  -28.2675    4.5422 H         1 UNK         0.0808 
    150 H150      -41.7327  -26.9164    5.4939 H         1 UNK         0.0808 
    151 H151      -42.2691  -28.3812    6.3010 H         1 UNK         0.0808 
    152 H152      -45.5293  -28.0463    4.5305 H         1 UNK         0.3098 
    153 H153      -46.1665  -30.3396    4.5675 H         1 UNK         0.0720 
    154 H154      -46.4955  -31.4218    7.4172 H         1 UNK         0.0791 
    155 H155      -45.3427  -32.0167    6.2296 H         1 UNK         0.0791 
    156 H156      -47.0650  -32.1899    5.9359 H         1 UNK         0.0791 
    157 H157      -48.1881  -29.8730    6.5982 H         1 UNK         0.3028 
@<TRIPOS>BOND
     1    1    2 1    
     2    1   82 1    
     3    1   83 1    
     4    1   84 1    
     5    2    3 2    
     6    2    4 am   BACKBONE|DICT|INTERRES
     7    4    5 1    
     8    4   85 1    
     9    5    6 1    
    10    5   80 1    
    11    5   86 1    
    12    6    7 1    
    13    6   87 1    
    14    6   88 1    
    15    7    8 1    
    16    8    9 1    
    17    8   89 1    
    18    8   90 1    
    19    9   10 ar   
    20    9   14 ar   
    21   10   11 ar   
    22   10   91 1    
    23   11   12 ar   
    24   11   58 1    
    25   12   13 ar   
    26   12   92 1    
    27   13   14 ar   
    28   13   15 1    
    29   14   93 1    
    30   15   16 1    
    31   15   94 1    
    32   15   95 1    
    33   16   17 1    
    34   17   18 1    
    35   17   96 1    
    36   17   97 1    
    37   18   19 1    
    38   18   22 1    
    39   18   98 1    
    40   19   20 am   BACKBONE|DICT|INTERRES
    41   19   21 2    
    42   20   99 1    
    43   20  100 1    
    44   22   23 am   BACKBONE|DICT|INTERRES
    45   22  101 1    
    46   23   24 2    
    47   23   25 1    
    48   25   26 1    
    49   25   27 1    
    50   25  102 1    
    51   26  103 1    
    52   26  104 1    
    53   26  105 1    
    54   27   28 am   BACKBONE|DICT|INTERRES
    55   27  106 1    
    56   28   29 2    
    57   28   30 1    
    58   30   31 1    
    59   30   32 1    
    60   30  107 1    
    61   31  108 1    
    62   31  109 1    
    63   31  110 1    
    64   32   33 am   BACKBONE|DICT|INTERRES
    65   32  111 1    
    66   33   34 2    
    67   33   35 1    
    68   35   36 1    
    69   35   37 1    
    70   35  112 1    
    71   36  113 1    
    72   36  114 1    
    73   36  115 1    
    74   37   38 am   BACKBONE|DICT|INTERRES
    75   37  116 1    
    76   38   39 2    
    77   38   40 1    
    78   40   41 1    
    79   40   42 1    
    80   40  117 1    
    81   41  118 1    
    82   41  119 1    
    83   41  120 1    
    84   42   43 am   BACKBONE|DICT|INTERRES
    85   42  121 1    
    86   43   44 2    
    87   43   45 1    
    88   45   46 1    
    89   45   47 1    
    90   45  122 1    
    91   46  123 1    
    92   46  124 1    
    93   46  125 1    
    94   47   48 am   BACKBONE|DICT|INTERRES
    95   47  126 1    
    96   48   49 2    
    97   48   50 1    
    98   50   51 1    
    99   50   52 1    
   100   50  127 1    
   101   51  128 1    
   102   51  129 1    
   103   51  130 1    
   104   52   53 am   BACKBONE|DICT|INTERRES
   105   52  131 1    
   106   53   54 2    
   107   53   55 1    
   108   55   56 1    
   109   55   59 1    
   110   55  132 1    
   111   56   57 1    
   112   56  133 1    
   113   56  134 1    
   114   57   58 1    
   115   58  135 1    
   116   58  136 1    
   117   59   60 am   BACKBONE|DICT|INTERRES
   118   59  137 1    
   119   60   61 2    
   120   60   62 1    
   121   62   63 1    
   122   62   64 1    
   123   62  138 1    
   124   63  139 1    
   125   63  140 1    
   126   63  141 1    
   127   64   65 am   BACKBONE|DICT|INTERRES
   128   64  142 1    
   129   65   66 2    
   130   65   67 1    
   131   67   68 1    
   132   67   69 1    
   133   67  143 1    
   134   68  144 1    
   135   68  145 1    
   136   68  146 1    
   137   69   70 am   BACKBONE|DICT|INTERRES
   138   69  147 1    
   139   70   71 2    
   140   70   72 1    
   141   72   73 1    
   142   72   74 1    
   143   72  148 1    
   144   73  149 1    
   145   73  150 1    
   146   73  151 1    
   147   74   75 am   BACKBONE|DICT|INTERRES
   148   74  152 1    
   149   75   76 2    
   150   75   77 1    
   151   77   78 1    
   152   77   79 1    
   153   77  153 1    
   154   78  154 1    
   155   78  155 1    
   156   78  156 1    
   157   79   80 am   BACKBONE|DICT|INTERRES
   158   79  157 1    
   159   80   81 2    
@<TRIPOS>SUBSTRUCTURE
     1 UNK         1 GROUP             0       ****    0 ROOT    
