@<TRIPOS>MOLECULE
3R207
157   159    1
SMALL
USER_CHARGES


@<TRIPOS>ATOM
      1 CA        -50.7804  -31.4299    4.0569 C.3       0 UNK        -0.1975 
      2 C         -50.3651  -30.5034    5.1892 C.2       0 UNK         0.4852 
      3 O         -50.8450  -30.6617    6.3124 O.2       0 UNK        -0.5216 
      4 N         -49.4725  -29.5443    4.9029 N.am      1 UNK        -0.4461 
      5 CA        -48.9235  -28.5116    5.8000 C.3       1 UNK         0.0864 
      6 C6        -49.9913  -27.5631    6.4048 C.3       14 UNK        -0.0898 
      7 S7        -50.7886  -26.5707    5.0955 S.3       14 UNK        -0.2598 
      8 C8        -52.4429  -27.3184    4.9784 C.3       14 UNK         0.0286 
      9 C9        -53.3781  -26.7819    6.0495 C.ar      14 UNK        -0.0844 
     10 C10       -53.8963  -25.4895    5.9365 C.ar      14 UNK        -0.0881 
     11 C11       -54.7576  -24.9788    6.9118 C.ar      14 UNK        -0.0643 
     12 C12       -55.1295  -25.7886    7.9896 C.ar      14 UNK        -0.0930 
     13 C13       -54.6109  -27.0817    8.1174 C.ar      14 UNK        -0.0827 
     14 C14       -53.7355  -27.5732    7.1436 C.ar      14 UNK        -0.1249 
     15 C15       -54.9847  -27.9481    9.3131 C.3       14 UNK         0.0141 
     16 S16       -54.4323  -27.2295   10.8936 S.3       14 UNK        -0.2313 
     17 C17       -52.6239  -27.1501   10.6677 C.3       14 UNK        -0.0915 
     18 CA        -51.8443  -28.2460   11.4360 C.3       13 UNK         0.0968 
     19 C         -50.3258  -28.0663   11.1826 C.2       13 UNK         0.5732 
     20 N         -49.6203  -27.3391   12.0389 N.am      13 UNK        -0.7310 
     21 O         -49.7917  -28.5861   10.2058 O.2       13 UNK        -0.5035 
     22 N         -52.1469  -28.2354   12.8744 N.am      13 UNK        -0.4233 
     23 C         -52.4078  -29.3186   13.6110 C.2       13 UNK         0.4989 
     24 O         -52.5535  -30.4517   13.1470 O.2       13 UNK        -0.4996 
     25 CA        -52.5147  -29.0823   15.1301 C.3       12 UNK         0.0216 
     26 CB        -52.7534  -30.3807   15.9307 C.3       12 UNK        -0.1964 
     27 N         -51.3665  -28.3437   15.6756 N.am      12 UNK        -0.4276 
     28 C         -50.0726  -28.7035   15.6328 C.2       12 UNK         0.5020 
     29 O         -49.6577  -29.7286   15.0907 O.2       12 UNK        -0.5489 
     30 CA        -49.0586  -27.7850   16.3403 C.3       11 UNK         0.0294 
     31 CB        -48.3115  -26.8911   15.3380 C.3       11 UNK        -0.2019 
     32 N         -49.6499  -26.9462   17.3854 N.am      11 UNK        -0.4493 
     33 C         -50.0188  -27.3744   18.5980 C.2       11 UNK         0.4932 
     34 O         -49.9238  -28.5458   18.9646 O.2       11 UNK        -0.5029 
     35 CA        -50.5774  -26.3267   19.5800 C.3       10 UNK         0.0280 
     36 CB        -49.4429  -25.4752   20.1836 C.3       10 UNK        -0.1976 
     37 N         -51.6574  -25.4830   19.0459 N.am      10 UNK        -0.4242 
     38 C         -51.6123  -24.5848   18.0525 C.2       10 UNK         0.5072 
     39 O         -50.6064  -24.3307   17.3854 O.2       10 UNK        -0.5224 
     40 CA        -52.9218  -23.8427   17.7464 C.3       9 UNK         0.0343 
     41 CB        -52.7856  -22.3423   18.0532 C.3       9 UNK        -0.2003 
     42 N         -53.2943  -24.0194   16.3445 N.am      9 UNK        -0.4272 
     43 C         -53.7338  -25.1694   15.8154 C.2       9 UNK         0.4988 
     44 O         -53.9344  -26.1915   16.4712 O.2       9 UNK        -0.5108 
     45 CA        -53.9733  -25.1883   14.2974 C.3       8 UNK         0.0248 
     46 CB        -55.4022  -24.7340   13.9630 C.3       8 UNK        -0.2001 
     47 N         -53.0136  -24.3581   13.5678 N.am      8 UNK        -0.4140 
     48 C         -51.7181  -24.6517   13.4070 C.2       8 UNK         0.5028 
     49 O         -51.2094  -25.7031   13.8013 O.2       8 UNK        -0.5428 
     50 CA        -50.8876  -23.6295   12.6085 C.3       7 UNK         0.0264 
     51 CB        -49.3702  -23.8422   12.7412 C.3       7 UNK        -0.1988 
     52 N         -51.2569  -23.6583   11.1917 N.am      7 UNK        -0.4454 
     53 C         -52.3682  -23.1008   10.6871 C.2       7 UNK         0.5027 
     54 O         -53.1580  -22.4520   11.3781 O.2       7 UNK        -0.5083 
     55 CA        -52.6849  -23.3308    9.1918 C.3       6 UNK         0.0844 
     56 C56       -53.5398  -22.1756    8.5949 C.3       14 UNK        -0.0967 
     57 S57       -53.9174  -22.3330    6.8135 S.3       14 UNK        -0.2604 
     58 C58       -55.2750  -23.5513    6.7961 C.3       14 UNK         0.0134 
     59 N         -51.5200  -23.6942    8.3781 N.am      6 UNK        -0.4116 
     60 C         -50.4328  -22.9491    8.1444 C.2       5 UNK         0.5034 
     61 O         -50.2066  -21.8539    8.6629 O.2       5 UNK        -0.5045 
     62 CA        -49.4315  -23.5340    7.1366 C.3       5 UNK         0.0224 
     63 CB        -49.1822  -22.5572    5.9753 C.3       5 UNK        -0.1978 
     64 N         -48.1518  -23.9097    7.7398 N.am      5 UNK        -0.4737 
     65 C         -47.9777  -24.8223    8.7052 C.2       4 UNK         0.5027 
     66 O         -48.9022  -25.3987    9.2800 O.2       4 UNK        -0.5211 
     67 CA        -46.5097  -25.1372    9.0413 C.3       4 UNK         0.0297 
     68 CB        -45.9006  -24.0672    9.9718 C.3       4 UNK        -0.1993 
     69 N         -46.3024  -26.5063    9.5374 N.am      4 UNK        -0.4486 
     70 C         -46.5131  -26.9965   10.7674 C.2       3 UNK         0.4961 
     71 O         -46.9342  -26.3453   11.7226 O.2       3 UNK        -0.5105 
     72 CA        -46.2029  -28.4875   10.9512 C.3       3 UNK         0.0299 
     73 CB        -46.4072  -28.9968   12.3921 C.3       3 UNK        -0.1972 
     74 N         -47.0219  -29.2710   10.0326 N.am      3 UNK        -0.4305 
     75 C         -46.6093  -30.3722    9.3982 C.2       2 UNK         0.5006 
     76 O         -45.4925  -30.8725    9.5446 O.2       2 UNK        -0.5106 
     77 CA        -47.5972  -31.0332    8.4223 C.3       2 UNK         0.0296 
     78 CB        -48.5509  -31.9710    9.1806 C.3       2 UNK        -0.2002 
     79 N         -48.3864  -30.1281    7.5777 N.am      2 UNK        -0.4032 
     80 C         -47.9551  -29.0803    6.8606 C.2       1 UNK         0.5000 
     81 O         -46.8262  -28.5934    6.9539 O.2       1 UNK        -0.5238 
     82 H82       -50.2853  -31.1774    3.1194 H         1 UNK         0.0889 
     83 H83       -51.8567  -31.3678    3.8992 H         1 UNK         0.0889 
     84 H84       -50.5310  -32.4609    4.3060 H         1 UNK         0.0889 
     85 H85       -49.1113  -29.5005    3.9599 H         1 UNK         0.3028 
     86 H86       -48.2930  -27.8978    5.1538 H         1 UNK         0.0864 
     87 H87       -50.7381  -28.1091    6.9827 H         1 UNK         0.0720 
     88 H88       -49.5273  -26.8673    7.1040 H         1 UNK         0.0720 
     89 H89       -52.3694  -28.4046    5.0323 H         1 UNK         0.0814 
     90 H90       -52.8595  -27.0928    3.9957 H         1 UNK         0.0814 
     91 H91       -53.6121  -24.8702    5.0964 H         1 UNK         0.1469 
     92 H92       -55.7992  -25.4056    8.7475 H         1 UNK         0.1381 
     93 H93       -53.3291  -28.5716    7.2371 H         1 UNK         0.1206 
     94 H94       -54.5643  -28.9504    9.2169 H         1 UNK         0.0813 
     95 H95       -56.0681  -28.0705    9.3401 H         1 UNK         0.0813 
     96 H96       -52.3076  -26.1633   10.9987 H         1 UNK         0.0638 
     97 H97       -52.3798  -27.1934    9.6059 H         1 UNK         0.0638 
     98 H98       -52.1245  -29.2089   11.0055 H         1 UNK         0.0568 
     99 H99       -48.6426  -27.1428   11.8591 H         1 UNK         0.3450 
    100 H100      -50.0855  -26.8557   12.7988 H         1 UNK         0.3450 
    101 H101      -51.9707  -27.3527   13.3459 H         1 UNK         0.2987 
    102 H102      -53.3910  -28.4505   15.2736 H         1 UNK         0.0766 
    103 H103      -53.6638  -30.8819   15.5999 H         1 UNK         0.0798 
    104 H104      -52.8661  -30.1737   16.9950 H         1 UNK         0.0798 
    105 H105      -51.9314  -31.0875   15.8120 H         1 UNK         0.0798 
    106 H106      -51.5856  -27.4629   16.1205 H         1 UNK         0.3198 
    107 H107      -48.3208  -28.4390   16.8107 H         1 UNK         0.0843 
    108 H108      -48.9611  -26.1302   14.9095 H         1 UNK         0.0831 
    109 H109      -47.9066  -27.4761   14.5124 H         1 UNK         0.0831 
    110 H110      -47.4734  -26.3810   15.8123 H         1 UNK         0.0831 
    111 H111      -49.7935  -25.9590   17.1759 H         1 UNK         0.3133 
    112 H112      -51.0297  -26.8851   20.4014 H         1 UNK         0.0566 
    113 H113      -49.8207  -24.7974   20.9491 H         1 UNK         0.0814 
    114 H114      -48.9323  -24.8761   19.4290 H         1 UNK         0.0814 
    115 H115      -48.6906  -26.1087   20.6554 H         1 UNK         0.0814 
    116 H116      -52.5556  -25.6309   19.4860 H         1 UNK         0.3091 
    117 H117      -53.7232  -24.2470   18.3688 H         1 UNK         0.0702 
    118 H118      -53.7206  -21.8128   17.8696 H         1 UNK         0.0785 
    119 H119      -52.0091  -21.8737   17.4468 H         1 UNK         0.0785 
    120 H120      -52.5225  -22.1814   19.0996 H         1 UNK         0.0785 
    121 H121      -53.1185  -23.2417   15.7263 H         1 UNK         0.2998 
    122 H122      -53.8621  -26.2188   13.9560 H         1 UNK         0.0697 
    123 H123      -55.5798  -23.6993   14.2586 H         1 UNK         0.0825 
    124 H124      -56.1381  -25.3527   14.4785 H         1 UNK         0.0825 
    125 H125      -55.6028  -24.8178   12.8945 H         1 UNK         0.0825 
    126 H126      -53.3656  -23.5192   13.1179 H         1 UNK         0.3029 
    127 H127      -51.1108  -22.6412   13.0169 H         1 UNK         0.0897 
    128 H128      -49.0424  -24.7598   12.2563 H         1 UNK         0.0792 
    129 H129      -49.0698  -23.8962   13.7882 H         1 UNK         0.0792 
    130 H130      -48.8173  -23.0196   12.2875 H         1 UNK         0.0792 
    131 H131      -50.6535  -24.1902   10.5761 H         1 UNK         0.3086 
    132 H132      -53.3064  -24.2238    9.1958 H         1 UNK         0.0583 
    133 H133      -54.4830  -22.0789    9.1361 H         1 UNK         0.1020 
    134 H134      -53.0215  -21.2247    8.7324 H         1 UNK         0.1020 
    135 H135      -55.9870  -23.3205    7.5900 H         1 UNK         0.0694 
    136 H136      -55.8203  -23.4533    5.8565 H         1 UNK         0.0694 
    137 H137      -51.5938  -24.5870    7.9113 H         1 UNK         0.2989 
    138 H138      -49.8632  -24.4401    6.7134 H         1 UNK         0.1055 
    139 H139      -48.6925  -21.6428    6.3132 H         1 UNK         0.0806 
    140 H140      -50.1222  -22.2676    5.5030 H         1 UNK         0.0806 
    141 H141      -48.5596  -23.0083    5.2023 H         1 UNK         0.0806 
    142 H142      -47.3340  -23.4598    7.3543 H         1 UNK         0.3061 
    143 H143      -45.9548  -25.1027    8.1022 H         1 UNK         0.0734 
    144 H144      -46.4728  -23.9546   10.8933 H         1 UNK         0.0832 
    145 H145      -44.8723  -24.3088   10.2401 H         1 UNK         0.0832 
    146 H146      -45.8878  -23.0907    9.4865 H         1 UNK         0.0832 
    147 H147      -46.0383  -27.1752    8.8242 H         1 UNK         0.3156 
    148 H148      -45.1465  -28.6056   10.7007 H         1 UNK         0.0589 
    149 H149      -46.0474  -30.0197   12.5014 H         1 UNK         0.0808 
    150 H150      -45.8598  -28.3841   13.1094 H         1 UNK         0.0808 
    151 H151      -47.4585  -28.9858   12.6801 H         1 UNK         0.0808 
    152 H152      -47.9762  -28.9424    9.8848 H         1 UNK         0.3098 
    153 H153      -47.0029  -31.6431    7.7393 H         1 UNK         0.0720 
    154 H154      -47.9972  -32.6781    9.8001 H         1 UNK         0.0791 
    155 H155      -49.1646  -32.5543    8.4937 H         1 UNK         0.0791 
    156 H156      -49.2205  -31.4142    9.8378 H         1 UNK         0.0791 
    157 H157      -49.3439  -30.4177    7.3903 H         1 UNK         0.3028 
@<TRIPOS>BOND
     1    1    2 1    
     2    1   82 1    
     3    1   83 1    
     4    1   84 1    
     5    2    3 2    
     6    2    4 am   BACKBONE|DICT|INTERRES
     7    4    5 1    
     8    4   85 1    
     9    5    6 1    
    10    5   80 1    
    11    5   86 1    
    12    6    7 1    
    13    6   87 1    
    14    6   88 1    
    15    7    8 1    
    16    8    9 1    
    17    8   89 1    
    18    8   90 1    
    19    9   10 ar   
    20    9   14 ar   
    21   10   11 ar   
    22   10   91 1    
    23   11   12 ar   
    24   11   58 1    
    25   12   13 ar   
    26   12   92 1    
    27   13   14 ar   
    28   13   15 1    
    29   14   93 1    
    30   15   16 1    
    31   15   94 1    
    32   15   95 1    
    33   16   17 1    
    34   17   18 1    
    35   17   96 1    
    36   17   97 1    
    37   18   19 1    
    38   18   22 1    
    39   18   98 1    
    40   19   20 am   BACKBONE|DICT|INTERRES
    41   19   21 2    
    42   20   99 1    
    43   20  100 1    
    44   22   23 am   BACKBONE|DICT|INTERRES
    45   22  101 1    
    46   23   24 2    
    47   23   25 1    
    48   25   26 1    
    49   25   27 1    
    50   25  102 1    
    51   26  103 1    
    52   26  104 1    
    53   26  105 1    
    54   27   28 am   BACKBONE|DICT|INTERRES
    55   27  106 1    
    56   28   29 2    
    57   28   30 1    
    58   30   31 1    
    59   30   32 1    
    60   30  107 1    
    61   31  108 1    
    62   31  109 1    
    63   31  110 1    
    64   32   33 am   BACKBONE|DICT|INTERRES
    65   32  111 1    
    66   33   34 2    
    67   33   35 1    
    68   35   36 1    
    69   35   37 1    
    70   35  112 1    
    71   36  113 1    
    72   36  114 1    
    73   36  115 1    
    74   37   38 am   BACKBONE|DICT|INTERRES
    75   37  116 1    
    76   38   39 2    
    77   38   40 1    
    78   40   41 1    
    79   40   42 1    
    80   40  117 1    
    81   41  118 1    
    82   41  119 1    
    83   41  120 1    
    84   42   43 am   BACKBONE|DICT|INTERRES
    85   42  121 1    
    86   43   44 2    
    87   43   45 1    
    88   45   46 1    
    89   45   47 1    
    90   45  122 1    
    91   46  123 1    
    92   46  124 1    
    93   46  125 1    
    94   47   48 am   BACKBONE|DICT|INTERRES
    95   47  126 1    
    96   48   49 2    
    97   48   50 1    
    98   50   51 1    
    99   50   52 1    
   100   50  127 1    
   101   51  128 1    
   102   51  129 1    
   103   51  130 1    
   104   52   53 am   BACKBONE|DICT|INTERRES
   105   52  131 1    
   106   53   54 2    
   107   53   55 1    
   108   55   56 1    
   109   55   59 1    
   110   55  132 1    
   111   56   57 1    
   112   56  133 1    
   113   56  134 1    
   114   57   58 1    
   115   58  135 1    
   116   58  136 1    
   117   59   60 am   BACKBONE|DICT|INTERRES
   118   59  137 1    
   119   60   61 2    
   120   60   62 1    
   121   62   63 1    
   122   62   64 1    
   123   62  138 1    
   124   63  139 1    
   125   63  140 1    
   126   63  141 1    
   127   64   65 am   BACKBONE|DICT|INTERRES
   128   64  142 1    
   129   65   66 2    
   130   65   67 1    
   131   67   68 1    
   132   67   69 1    
   133   67  143 1    
   134   68  144 1    
   135   68  145 1    
   136   68  146 1    
   137   69   70 am   BACKBONE|DICT|INTERRES
   138   69  147 1    
   139   70   71 2    
   140   70   72 1    
   141   72   73 1    
   142   72   74 1    
   143   72  148 1    
   144   73  149 1    
   145   73  150 1    
   146   73  151 1    
   147   74   75 am   BACKBONE|DICT|INTERRES
   148   74  152 1    
   149   75   76 2    
   150   75   77 1    
   151   77   78 1    
   152   77   79 1    
   153   77  153 1    
   154   78  154 1    
   155   78  155 1    
   156   78  156 1    
   157   79   80 am   BACKBONE|DICT|INTERRES
   158   79  157 1    
   159   80   81 2    
@<TRIPOS>SUBSTRUCTURE
     1 UNK         1 GROUP             0       ****    0 ROOT    
