@<TRIPOS>MOLECULE
3R207
157   159    1
SMALL
USER_CHARGES


@<TRIPOS>ATOM
      1 CA        -50.5459  -31.9219    7.0028 C.3       0 UNK        -0.1975 
      2 C         -49.7583  -31.3076    5.8559 C.2       0 UNK         0.4852 
      3 O         -48.7089  -31.8323    5.4832 O.2       0 UNK        -0.5216 
      4 N         -50.2602  -30.2021    5.2890 N.am      1 UNK        -0.4461 
      5 CA        -49.6670  -29.5015    4.1429 C.3       1 UNK         0.0864 
      6 C6        -50.7211  -28.6205    3.4182 C.3       14 UNK        -0.0898 
      7 S7        -51.1574  -27.0497    4.2511 S.3       14 UNK        -0.2598 
      8 C8        -52.7725  -27.4151    5.0225 C.3       14 UNK         0.0286 
      9 C9        -52.6973  -28.1791    6.3447 C.ar      14 UNK        -0.0844 
     10 C10       -51.6193  -28.0319    7.2258 C.ar      14 UNK        -0.0881 
     11 C11       -51.5778  -28.7217    8.4406 C.ar      14 UNK        -0.0643 
     12 C12       -52.6555  -29.5424    8.7898 C.ar      14 UNK        -0.0930 
     13 C13       -53.7570  -29.6757    7.9401 C.ar      14 UNK        -0.0827 
     14 C14       -53.7603  -29.0087    6.7111 C.ar      14 UNK        -0.1249 
     15 C15       -54.9366  -30.5439    8.3625 C.3       14 UNK         0.0141 
     16 S16       -56.5565  -29.7086    8.2287 S.3       14 UNK        -0.2313 
     17 C17       -56.3184  -28.1159    9.1022 C.3       14 UNK        -0.0915 
     18 CA        -56.8758  -28.0697   10.5491 C.3       13 UNK         0.0968 
     19 C         -58.4199  -28.2697   10.6113 C.2       13 UNK         0.5732 
     20 N         -58.9333  -29.2974   11.2772 N.am      13 UNK        -0.7310 
     21 O         -59.1654  -27.4663   10.0556 O.2       13 UNK        -0.5035 
     22 N         -56.0840  -28.9185   11.4515 N.am      13 UNK        -0.4233 
     23 C         -56.0176  -28.7716   12.7803 C.2       13 UNK         0.4989 
     24 O         -56.6604  -27.9242   13.4051 O.2       13 UNK        -0.4996 
     25 CA        -55.1082  -29.7565   13.5462 C.3       12 UNK         0.0216 
     26 CB        -53.9439  -30.3187   12.6964 C.3       12 UNK        -0.1964 
     27 N         -54.6063  -29.1904   14.8060 N.am      12 UNK        -0.4276 
     28 C         -53.8079  -28.1230   14.9540 C.2       12 UNK         0.5020 
     29 O         -53.3348  -27.4677   14.0229 O.2       12 UNK        -0.5489 
     30 CA        -53.4641  -27.7434   16.3992 C.3       11 UNK         0.0294 
     31 CB        -52.4738  -28.7486   17.0164 C.3       11 UNK        -0.2019 
     32 N         -52.8636  -26.4128   16.4307 N.am      11 UNK        -0.4493 
     33 C         -53.0225  -25.5145   17.4089 C.2       11 UNK         0.4932 
     34 O         -53.7614  -25.6799   18.3817 O.2       11 UNK        -0.5029 
     35 CA        -52.1687  -24.2390   17.2864 C.3       10 UNK         0.0280 
     36 CB        -52.3288  -23.2698   18.4766 C.3       10 UNK        -0.1976 
     37 N         -50.7597  -24.5744   17.0571 N.am      10 UNK        -0.4242 
     38 C         -49.9399  -25.2726   17.8591 C.2       10 UNK         0.5072 
     39 O         -50.2271  -25.6435   18.9981 O.2       10 UNK        -0.5224 
     40 CA        -48.5637  -25.6488   17.2824 C.3       9 UNK         0.0343 
     41 CB        -48.6281  -27.0439   16.6394 C.3       9 UNK        -0.2003 
     42 N         -48.0605  -24.6856   16.2998 N.am      9 UNK        -0.4272 
     43 C         -47.6549  -23.4422   16.5955 C.2       9 UNK         0.4988 
     44 O         -47.6022  -22.9913   17.7404 O.2       9 UNK        -0.5108 
     45 CA        -47.2519  -22.5429   15.4149 C.3       8 UNK         0.0248 
     46 CB        -45.8137  -22.8485   14.9669 C.3       8 UNK        -0.2001 
     47 N         -48.1676  -22.6521   14.2745 N.am      8 UNK        -0.4140 
     48 C         -49.4511  -22.2592   14.2951 C.2       8 UNK         0.5028 
     49 O         -49.9870  -21.7182   15.2625 O.2       8 UNK        -0.5428 
     50 CA        -50.2935  -22.5371   13.0385 C.3       7 UNK         0.0264 
     51 CB        -50.0216  -21.4810   11.9557 C.3       7 UNK        -0.1988 
     52 N         -50.0774  -23.8782   12.4910 N.am      7 UNK        -0.4454 
     53 C         -50.3781  -25.0191   13.1301 C.2       7 UNK         0.5027 
     54 O         -50.9296  -25.0572   14.2309 O.2       7 UNK        -0.5083 
     55 CA        -49.9330  -26.3393   12.4704 C.3       6 UNK         0.0844 
     56 C56       -50.9893  -26.8804   11.4776 C.3       14 UNK        -0.0967 
     57 S57       -50.6729  -28.6395   11.1116 S.3       14 UNK        -0.2604 
     58 C58       -50.3353  -28.6170    9.3228 C.3       14 UNK         0.0134 
     59 N         -48.5993  -26.2248   11.8703 N.am      6 UNK        -0.4116 
     60 C         -47.4717  -26.0308   12.5682 C.2       5 UNK         0.5034 
     61 O         -47.4259  -25.9511   13.7951 O.2       5 UNK        -0.5045 
     62 CA        -46.1836  -25.8419   11.7567 C.3       5 UNK         0.0224 
     63 CB        -45.6304  -27.1940   11.2780 C.3       5 UNK        -0.1978 
     64 N         -46.3896  -24.9479   10.6155 N.am      5 UNK        -0.4737 
     65 C         -46.5796  -23.6252   10.7317 C.2       4 UNK         0.5027 
     66 O         -46.5819  -23.0308   11.8087 O.2       4 UNK        -0.5211 
     67 CA        -46.8493  -22.8318    9.4410 C.3       4 UNK         0.0297 
     68 CB        -45.5262  -22.3865    8.7992 C.3       4 UNK        -0.1993 
     69 N         -47.6483  -23.5659    8.4573 N.am      4 UNK        -0.4486 
     70 C         -48.8893  -24.0225    8.6721 C.2       3 UNK         0.4961 
     71 O         -49.5116  -23.8573    9.7204 O.2       3 UNK        -0.5105 
     72 CA        -49.5350  -24.8486    7.5501 C.3       3 UNK         0.0299 
     73 CB        -50.2903  -23.9289    6.5785 C.3       3 UNK        -0.1972 
     74 N         -48.6258  -25.7237    6.7937 N.am      3 UNK        -0.4305 
     75 C         -47.7506  -26.6021    7.3082 C.2       2 UNK         0.5006 
     76 O         -47.5048  -26.7042    8.5106 O.2       2 UNK        -0.5106 
     77 CA        -47.1091  -27.5735    6.3098 C.3       2 UNK         0.0296 
     78 CB        -46.0180  -28.4556    6.9464 C.3       2 UNK        -0.2002 
     79 N         -48.1730  -28.4214    5.7780 N.am      2 UNK        -0.4032 
     80 C         -48.3765  -28.7182    4.4882 C.2       1 UNK         0.5000 
     81 O         -47.6132  -28.3817    3.5808 O.2       1 UNK        -0.5238 
     82 H82       -50.5833  -33.0056    6.8962 H         1 UNK         0.0889 
     83 H83       -51.5715  -31.5553    7.0279 H         1 UNK         0.0889 
     84 H84       -50.0722  -31.6893    7.9557 H         1 UNK         0.0889 
     85 H85       -51.1234  -29.8082    5.6414 H         1 UNK         0.3028 
     86 H86       -49.3616  -30.2719    3.4312 H         1 UNK         0.0864 
     87 H87       -50.3434  -28.3576    2.4285 H         1 UNK         0.0720 
     88 H88       -51.6275  -29.1982    3.2302 H         1 UNK         0.0720 
     89 H89       -53.3965  -27.9497    4.3047 H         1 UNK         0.0814 
     90 H90       -53.2762  -26.4672    5.2151 H         1 UNK         0.0814 
     91 H91       -50.7974  -27.3897    6.9551 H         1 UNK         0.1469 
     92 H92       -52.6342  -30.0845    9.7247 H         1 UNK         0.1381 
     93 H93       -54.6104  -29.1159    6.0509 H         1 UNK         0.1206 
     94 H94       -54.9535  -31.4364    7.7358 H         1 UNK         0.0813 
     95 H95       -54.8114  -30.8966    9.3864 H         1 UNK         0.0813 
     96 H96       -55.2624  -27.8457    9.1107 H         1 UNK         0.0638 
     97 H97       -56.7993  -27.3432    8.5002 H         1 UNK         0.0638 
     98 H98       -56.7221  -27.0449   10.8929 H         1 UNK         0.0568 
     99 H99       -59.9338  -29.4108   11.3141 H         1 UNK         0.3450 
    100 H100      -58.3318  -29.9617   11.7356 H         1 UNK         0.3450 
    101 H101      -55.5502  -29.6507   11.0119 H         1 UNK         0.2987 
    102 H102      -55.7450  -30.5960   13.8290 H         1 UNK         0.0766 
    103 H103      -53.2720  -30.9273   13.3016 H         1 UNK         0.0798 
    104 H104      -53.3496  -29.5218   12.2477 H         1 UNK         0.0798 
    105 H105      -54.3059  -30.9584   11.8915 H         1 UNK         0.0798 
    106 H106      -54.9591  -29.6324   15.6436 H         1 UNK         0.3198 
    107 H107      -54.3927  -27.7435   16.9740 H         1 UNK         0.0843 
    108 H108      -51.5433  -28.7930   16.4491 H         1 UNK         0.0831 
    109 H109      -52.8910  -29.7558   17.0400 H         1 UNK         0.0831 
    110 H110      -52.2245  -28.4791   18.0431 H         1 UNK         0.0831 
    111 H111      -52.3116  -26.1715   15.6120 H         1 UNK         0.3133 
    112 H112      -52.5091  -23.7199   16.3892 H         1 UNK         0.0566 
    113 H113      -51.7156  -22.3785   18.3439 H         1 UNK         0.0814 
    114 H114      -53.3641  -22.9410   18.5726 H         1 UNK         0.0814 
    115 H115      -52.0474  -23.7332   19.4225 H         1 UNK         0.0814 
    116 H116      -50.4376  -24.3986   16.1115 H         1 UNK         0.3091 
    117 H117      -47.8552  -25.6869   18.1125 H         1 UNK         0.0702 
    118 H118      -48.9753  -27.7898   17.3557 H         1 UNK         0.0785 
    119 H119      -49.3122  -27.0637   15.7901 H         1 UNK         0.0785 
    120 H120      -47.6476  -27.3639   16.2864 H         1 UNK         0.0785 
    121 H121      -47.9953  -25.0083   15.3371 H         1 UNK         0.2998 
    122 H122      -47.2821  -21.5087   15.7642 H         1 UNK         0.0697 
    123 H123      -45.7220  -23.8558   14.5595 H         1 UNK         0.0825 
    124 H124      -45.1178  -22.7689   15.8031 H         1 UNK         0.0825 
    125 H125      -45.4805  -22.1475   14.2014 H         1 UNK         0.0825 
    126 H126      -47.7791  -23.0273   13.4140 H         1 UNK         0.3029 
    127 H127      -51.3450  -22.4654   13.3252 H         1 UNK         0.0897 
    128 H128      -50.6697  -21.6244   11.0908 H         1 UNK         0.0792 
    129 H129      -48.9889  -21.5157   11.6082 H         1 UNK         0.0792 
    130 H130      -50.2053  -20.4753   12.3360 H         1 UNK         0.0792 
    131 H131      -49.6863  -23.9278   11.5515 H         1 UNK         0.3086 
    132 H132      -49.8523  -27.0623   13.2856 H         1 UNK         0.0583 
    133 H133      -51.9923  -26.8148   11.9024 H         1 UNK         0.1020 
    134 H134      -51.0123  -26.2869   10.5618 H         1 UNK         0.1020 
    135 H135      -49.7795  -27.7113    9.0922 H         1 UNK         0.0694 
    136 H136      -49.6752  -29.4522    9.0877 H         1 UNK         0.0694 
    137 H137      -48.5414  -26.2646   10.8625 H         1 UNK         0.2989 
    138 H138      -45.4405  -25.3870   12.4159 H         1 UNK         0.1055 
    139 H139      -45.4096  -27.8436   12.1259 H         1 UNK         0.0806 
    140 H140      -44.7046  -27.0679   10.7167 H         1 UNK         0.0806 
    141 H141      -46.3386  -27.7245   10.6407 H         1 UNK         0.0806 
    142 H142      -46.4972  -25.3855    9.7061 H         1 UNK         0.3061 
    143 H143      -47.4112  -21.9375    9.7178 H         1 UNK         0.0734 
    144 H144      -45.6988  -21.7437    7.9359 H         1 UNK         0.0832 
    145 H145      -44.9224  -21.8179    9.5080 H         1 UNK         0.0832 
    146 H146      -44.9281  -23.2380    8.4722 H         1 UNK         0.0832 
    147 H147      -47.2145  -23.7649    7.5678 H         1 UNK         0.3156 
    148 H148      -50.2704  -25.4905    8.0358 H         1 UNK         0.0589 
    149 H149      -49.6088  -23.3000    6.0045 H         1 UNK         0.0808 
    150 H150      -50.8936  -24.5015    5.8746 H         1 UNK         0.0808 
    151 H151      -50.9711  -23.2664    7.1154 H         1 UNK         0.0808 
    152 H152      -48.7532  -25.7252    5.7911 H         1 UNK         0.3098 
    153 H153      -46.6570  -26.9758    5.5155 H         1 UNK         0.0720 
    154 H154      -45.5628  -29.1143    6.2068 H         1 UNK         0.0791 
    155 H155      -46.4175  -29.0791    7.7475 H         1 UNK         0.0791 
    156 H156      -45.2214  -27.8449    7.3733 H         1 UNK         0.0791 
    157 H157      -48.8550  -28.7478    6.4463 H         1 UNK         0.3028 
@<TRIPOS>BOND
     1    1    2 1    
     2    1   82 1    
     3    1   83 1    
     4    1   84 1    
     5    2    3 2    
     6    2    4 am   BACKBONE|DICT|INTERRES
     7    4    5 1    
     8    4   85 1    
     9    5    6 1    
    10    5   80 1    
    11    5   86 1    
    12    6    7 1    
    13    6   87 1    
    14    6   88 1    
    15    7    8 1    
    16    8    9 1    
    17    8   89 1    
    18    8   90 1    
    19    9   10 ar   
    20    9   14 ar   
    21   10   11 ar   
    22   10   91 1    
    23   11   12 ar   
    24   11   58 1    
    25   12   13 ar   
    26   12   92 1    
    27   13   14 ar   
    28   13   15 1    
    29   14   93 1    
    30   15   16 1    
    31   15   94 1    
    32   15   95 1    
    33   16   17 1    
    34   17   18 1    
    35   17   96 1    
    36   17   97 1    
    37   18   19 1    
    38   18   22 1    
    39   18   98 1    
    40   19   20 am   BACKBONE|DICT|INTERRES
    41   19   21 2    
    42   20   99 1    
    43   20  100 1    
    44   22   23 am   BACKBONE|DICT|INTERRES
    45   22  101 1    
    46   23   24 2    
    47   23   25 1    
    48   25   26 1    
    49   25   27 1    
    50   25  102 1    
    51   26  103 1    
    52   26  104 1    
    53   26  105 1    
    54   27   28 am   BACKBONE|DICT|INTERRES
    55   27  106 1    
    56   28   29 2    
    57   28   30 1    
    58   30   31 1    
    59   30   32 1    
    60   30  107 1    
    61   31  108 1    
    62   31  109 1    
    63   31  110 1    
    64   32   33 am   BACKBONE|DICT|INTERRES
    65   32  111 1    
    66   33   34 2    
    67   33   35 1    
    68   35   36 1    
    69   35   37 1    
    70   35  112 1    
    71   36  113 1    
    72   36  114 1    
    73   36  115 1    
    74   37   38 am   BACKBONE|DICT|INTERRES
    75   37  116 1    
    76   38   39 2    
    77   38   40 1    
    78   40   41 1    
    79   40   42 1    
    80   40  117 1    
    81   41  118 1    
    82   41  119 1    
    83   41  120 1    
    84   42   43 am   BACKBONE|DICT|INTERRES
    85   42  121 1    
    86   43   44 2    
    87   43   45 1    
    88   45   46 1    
    89   45   47 1    
    90   45  122 1    
    91   46  123 1    
    92   46  124 1    
    93   46  125 1    
    94   47   48 am   BACKBONE|DICT|INTERRES
    95   47  126 1    
    96   48   49 2    
    97   48   50 1    
    98   50   51 1    
    99   50   52 1    
   100   50  127 1    
   101   51  128 1    
   102   51  129 1    
   103   51  130 1    
   104   52   53 am   BACKBONE|DICT|INTERRES
   105   52  131 1    
   106   53   54 2    
   107   53   55 1    
   108   55   56 1    
   109   55   59 1    
   110   55  132 1    
   111   56   57 1    
   112   56  133 1    
   113   56  134 1    
   114   57   58 1    
   115   58  135 1    
   116   58  136 1    
   117   59   60 am   BACKBONE|DICT|INTERRES
   118   59  137 1    
   119   60   61 2    
   120   60   62 1    
   121   62   63 1    
   122   62   64 1    
   123   62  138 1    
   124   63  139 1    
   125   63  140 1    
   126   63  141 1    
   127   64   65 am   BACKBONE|DICT|INTERRES
   128   64  142 1    
   129   65   66 2    
   130   65   67 1    
   131   67   68 1    
   132   67   69 1    
   133   67  143 1    
   134   68  144 1    
   135   68  145 1    
   136   68  146 1    
   137   69   70 am   BACKBONE|DICT|INTERRES
   138   69  147 1    
   139   70   71 2    
   140   70   72 1    
   141   72   73 1    
   142   72   74 1    
   143   72  148 1    
   144   73  149 1    
   145   73  150 1    
   146   73  151 1    
   147   74   75 am   BACKBONE|DICT|INTERRES
   148   74  152 1    
   149   75   76 2    
   150   75   77 1    
   151   77   78 1    
   152   77   79 1    
   153   77  153 1    
   154   78  154 1    
   155   78  155 1    
   156   78  156 1    
   157   79   80 am   BACKBONE|DICT|INTERRES
   158   79  157 1    
   159   80   81 2    
@<TRIPOS>SUBSTRUCTURE
     1 UNK         1 GROUP             0       ****    0 ROOT    
