@<TRIPOS>MOLECULE
3R207
157   159    1
SMALL
USER_CHARGES


@<TRIPOS>ATOM
      1 CA        -47.7113  -32.3273    5.9879 C.3       0 UNK        -0.1975 
      2 C         -48.4813  -31.0158    6.0100 C.2       0 UNK         0.4852 
      3 O         -48.5851  -30.3891    7.0629 O.2       0 UNK        -0.5216 
      4 N         -48.9983  -30.5851    4.8503 N.am      1 UNK        -0.4461 
      5 CA        -49.8456  -29.4017    4.5972 C.3       1 UNK         0.0864 
      6 C6        -51.1917  -29.3807    5.3786 C.3       14 UNK        -0.0898 
      7 S7        -52.0496  -30.9972    5.4418 S.3       14 UNK        -0.2598 
      8 C8        -53.4897  -30.6345    6.5077 C.3       14 UNK         0.0286 
      9 C9        -53.2521  -30.7140    8.0202 C.ar      14 UNK        -0.0844 
     10 C10       -51.9999  -30.4868    8.6047 C.ar      14 UNK        -0.0881 
     11 C11       -51.8425  -30.4608    9.9931 C.ar      14 UNK        -0.0643 
     12 C12       -52.9397  -30.7364   10.8112 C.ar      14 UNK        -0.0930 
     13 C13       -54.1885  -31.0129   10.2476 C.ar      14 UNK        -0.0827 
     14 C14       -54.3405  -30.9848    8.8571 C.ar      14 UNK        -0.1249 
     15 C15       -55.3728  -31.3389   11.1453 C.3       14 UNK         0.0141 
     16 S16       -55.9769  -29.8698   12.0306 S.3       14 UNK        -0.2313 
     17 C17       -56.6495  -28.8643   10.6648 C.3       14 UNK        -0.0915 
     18 CA        -55.6600  -27.7829   10.1566 C.3       13 UNK         0.0968 
     19 C         -56.2730  -27.0213    8.9503 C.2       13 UNK         0.5732 
     20 N         -56.0047  -27.4723    7.7325 N.am      13 UNK        -0.7310 
     21 O         -57.0253  -26.0616    9.1114 O.2       13 UNK        -0.5035 
     22 N         -55.2274  -26.8971   11.2449 N.am      13 UNK        -0.4233 
     23 C         -54.3268  -25.9145   11.1470 C.2       13 UNK         0.4989 
     24 O         -53.7141  -25.6404   10.1155 O.2       13 UNK        -0.4996 
     25 CA        -54.0220  -25.1196   12.4280 C.3       12 UNK         0.0216 
     26 CB        -55.1705  -24.1609   12.7970 C.3       12 UNK        -0.1964 
     27 N         -53.6168  -25.9603   13.5650 N.am      12 UNK        -0.4276 
     28 C         -54.3380  -26.8570   14.2550 C.2       12 UNK         0.5020 
     29 O         -55.5374  -27.0670   14.0732 O.2       12 UNK        -0.5489 
     30 CA        -53.5810  -27.6642   15.3202 C.3       11 UNK         0.0294 
     31 CB        -52.8369  -28.8435   14.6700 C.3       11 UNK        -0.2019 
     32 N         -52.6261  -26.8209   16.0420 N.am      11 UNK        -0.4493 
     33 C         -52.9158  -26.1252   17.1492 C.2       11 UNK         0.4932 
     34 O         -53.9999  -26.1991   17.7301 O.2       11 UNK        -0.5029 
     35 CA        -51.8413  -25.1559   17.6828 C.3       10 UNK         0.0280 
     36 CB        -51.8582  -25.0336   19.2218 C.3       10 UNK        -0.1976 
     37 N         -50.4848  -25.4120   17.1802 N.am      10 UNK        -0.4242 
     38 C         -49.6888  -26.4607   17.4466 C.2       10 UNK         0.5072 
     39 O         -50.0138  -27.3905   18.1862 O.2       10 UNK        -0.5224 
     40 CA        -48.2995  -26.5087   16.7726 C.3       9 UNK         0.0343 
     41 CB        -48.1748  -27.7570   15.8819 C.3       9 UNK        -0.2003 
     42 N         -47.9804  -25.3252   15.9691 N.am      9 UNK        -0.4272 
     43 C         -47.6235  -24.1269   16.4520 C.2       9 UNK         0.4988 
     44 O         -47.4301  -23.8994   17.6463 O.2       9 UNK        -0.5108 
     45 CA        -47.5220  -22.9731   15.4345 C.3       8 UNK         0.0248 
     46 CB        -46.1118  -22.8987   14.8284 C.3       8 UNK        -0.2001 
     47 N         -48.5257  -23.0571   14.3641 N.am      8 UNK        -0.4140 
     48 C         -49.8512  -23.0166   14.5723 C.2       8 UNK         0.5028 
     49 O         -50.3608  -22.8486   15.6794 O.2       8 UNK        -0.5428 
     50 CA        -50.7699  -23.2727   13.3697 C.3       7 UNK         0.0264 
     51 CB        -50.9233  -22.0098   12.5091 C.3       7 UNK        -0.1988 
     52 N         -50.3141  -24.3951   12.5456 N.am      7 UNK        -0.4454 
     53 C         -50.2935  -25.6762   12.9415 C.2       7 UNK         0.5027 
     54 O         -50.7737  -26.0546   14.0108 O.2       7 UNK        -0.5083 
     55 CA        -49.6068  -26.7048   12.0193 C.3       6 UNK         0.0844 
     56 C56       -50.6019  -27.3271   11.0106 C.3       14 UNK        -0.0967 
     57 S57       -49.7842  -28.5876    9.9740 S.3       14 UNK        -0.2604 
     58 C58       -50.4787  -30.1540   10.5981 C.3       14 UNK         0.0134 
     59 N         -48.4169  -26.1406   11.3740 N.am      6 UNK        -0.4116 
     60 C         -47.3125  -25.7581   12.0290 C.2       5 UNK         0.5034 
     61 O         -47.1596  -25.8825   13.2431 O.2       5 UNK        -0.5045 
     62 CA        -46.2208  -25.0672   11.2013 C.3       5 UNK         0.0224 
     63 CB        -45.3074  -26.0988   10.5200 C.3       5 UNK        -0.1978 
     64 N         -46.7997  -24.1665   10.2022 N.am      5 UNK        -0.4737 
     65 C         -47.3642  -22.9875   10.4987 C.2       4 UNK         0.5027 
     66 O         -47.4075  -22.5233   11.6382 O.2       4 UNK        -0.5211 
     67 CA        -48.0239  -22.2164    9.3409 C.3       4 UNK         0.0297 
     68 CB        -46.9783  -21.3804    8.5866 C.3       4 UNK        -0.1993 
     69 N         -48.7314  -23.0872    8.3969 N.am      4 UNK        -0.4486 
     70 C         -49.8125  -23.8167    8.7076 C.2       3 UNK         0.4961 
     71 O         -50.3519  -23.7941    9.8111 O.2       3 UNK        -0.5105 
     72 CA        -50.3608  -24.7704    7.6311 C.3       3 UNK         0.0299 
     73 CB        -51.4137  -24.0592    6.7679 C.3       3 UNK        -0.1972 
     74 N         -49.3459  -25.3809    6.7639 N.am      3 UNK        -0.4305 
     75 C         -48.2666  -26.0577    7.1808 C.2       2 UNK         0.5006 
     76 O         -47.9365  -26.1622    8.3628 O.2       2 UNK        -0.5106 
     77 CA        -47.4440  -26.7583    6.0899 C.3       2 UNK         0.0296 
     78 CB        -46.0330  -27.1399    6.5753 C.3       2 UNK        -0.2002 
     79 N         -48.1466  -27.9700    5.6795 N.am      2 UNK        -0.4032 
     80 C         -49.1213  -28.0447    4.7658 C.2       1 UNK         0.5000 
     81 O         -49.4725  -27.0843    4.0772 O.2       1 UNK        -0.5238 
     82 H82       -46.6843  -32.1650    6.3138 H         1 UNK         0.0889 
     83 H83       -47.6866  -32.7703    4.9925 H         1 UNK         0.0889 
     84 H84       -48.1754  -33.0430    6.6660 H         1 UNK         0.0889 
     85 H85       -48.8332  -31.1479    4.0272 H         1 UNK         0.3028 
     86 H86       -50.0969  -29.4703    3.5375 H         1 UNK         0.0864 
     87 H87       -51.0377  -29.0018    6.3877 H         1 UNK         0.0720 
     88 H88       -51.8713  -28.6671    4.9089 H         1 UNK         0.0720 
     89 H89       -54.2746  -31.3419    6.2353 H         1 UNK         0.0814 
     90 H90       -53.8756  -29.6448    6.2611 H         1 UNK         0.0814 
     91 H91       -51.1267  -30.3123    7.9980 H         1 UNK         0.1469 
     92 H92       -52.8262  -30.7382   11.8866 H         1 UNK         0.1381 
     93 H93       -55.3141  -31.1726    8.4247 H         1 UNK         0.1206 
     94 H94       -55.0721  -32.0906   11.8765 H         1 UNK         0.0813 
     95 H95       -56.1895  -31.7818   10.5731 H         1 UNK         0.0813 
     96 H96       -57.5689  -28.3959   11.0211 H         1 UNK         0.0638 
     97 H97       -56.9459  -29.5285    9.8510 H         1 UNK         0.0638 
     98 H98       -54.7574  -28.2826    9.8022 H         1 UNK         0.0568 
     99 H99       -56.4080  -27.0028    6.9372 H         1 UNK         0.3450 
    100 H100      -55.3995  -28.2652    7.5959 H         1 UNK         0.3450 
    101 H101      -55.6377  -27.0699   12.1585 H         1 UNK         0.2987 
    102 H102      -53.1578  -24.4993   12.1920 H         1 UNK         0.0766 
    103 H103      -54.9085  -23.5437   13.6564 H         1 UNK         0.0798 
    104 H104      -56.0921  -24.6925   13.0351 H         1 UNK         0.0798 
    105 H105      -55.3927  -23.4867   11.9688 H         1 UNK         0.0798 
    106 H106      -52.6289  -25.9119   13.7992 H         1 UNK         0.3198 
    107 H107      -54.3151  -28.0725   16.0185 H         1 UNK         0.0843 
    108 H108      -52.0822  -28.5106   13.9570 H         1 UNK         0.0831 
    109 H109      -53.5312  -29.4904   14.1317 H         1 UNK         0.0831 
    110 H110      -52.3386  -29.4570   15.4206 H         1 UNK         0.0831 
    111 H111      -51.7286  -26.6605   15.5940 H         1 UNK         0.3133 
    112 H112      -52.1152  -24.1786   17.2840 H         1 UNK         0.0566 
    113 H113      -51.0998  -24.3336   19.5724 H         1 UNK         0.0814 
    114 H114      -52.8225  -24.6663   19.5749 H         1 UNK         0.0814 
    115 H115      -51.6816  -25.9933   19.7081 H         1 UNK         0.0814 
    116 H116      -50.1326  -24.6939   16.5558 H         1 UNK         0.3091 
    117 H117      -47.5588  -26.5872   17.5710 H         1 UNK         0.0702 
    118 H118      -47.1893  -27.8190   15.4196 H         1 UNK         0.0785 
    119 H119      -48.9189  -27.7588   15.0857 H         1 UNK         0.0785 
    120 H120      -48.3174  -28.6696   16.4620 H         1 UNK         0.0785 
    121 H121      -48.0192  -25.4409   14.9607 H         1 UNK         0.2998 
    122 H122      -47.7044  -22.0429   15.9766 H         1 UNK         0.0697 
    123 H123      -45.8554  -23.8071   14.2842 H         1 UNK         0.0825 
    124 H124      -45.3606  -22.7647   15.6078 H         1 UNK         0.0825 
    125 H125      -46.0187  -22.0584   14.1401 H         1 UNK         0.0825 
    126 H126      -48.1791  -23.1378   13.4127 H         1 UNK         0.3029 
    127 H127      -51.7532  -23.5233   13.7715 H         1 UNK         0.0897 
    128 H128      -51.6463  -22.1637   11.7077 H         1 UNK         0.0792 
    129 H129      -51.2772  -21.1696   13.1079 H         1 UNK         0.0792 
    130 H130      -49.9791  -21.7118   12.0534 H         1 UNK         0.0792 
    131 H131      -50.0202  -24.1702   11.5967 H         1 UNK         0.3086 
    132 H132      -49.2591  -27.5136   12.6653 H         1 UNK         0.0583 
    133 H133      -51.4533  -27.7764   11.5255 H         1 UNK         0.1020 
    134 H134      -51.0170  -26.5596   10.3551 H         1 UNK         0.1020 
    135 H135      -49.7956  -30.9629   10.3357 H         1 UNK         0.0694 
    136 H136      -50.5217  -30.1252   11.6880 H         1 UNK         0.0694 
    137 H137      -48.4360  -26.0590   10.3622 H         1 UNK         0.2989 
    138 H138      -45.6094  -24.4742   11.8850 H         1 UNK         0.1055 
    139 H139      -44.8178  -26.7307   11.2622 H         1 UNK         0.0806 
    140 H140      -44.5227  -25.6131    9.9399 H         1 UNK         0.0806 
    141 H141      -45.8607  -26.7577    9.8505 H         1 UNK         0.0806 
    142 H142      -46.9012  -24.5367    9.2648 H         1 UNK         0.3061 
    143 H143      -48.7559  -21.5328    9.7764 H         1 UNK         0.0734 
    144 H144      -47.4429  -20.7610    7.8192 H         1 UNK         0.0832 
    145 H145      -46.4529  -20.7092    9.2675 H         1 UNK         0.0832 
    146 H146      -46.2274  -22.0079    8.1048 H         1 UNK         0.0832 
    147 H147      -48.3489  -23.1695    7.4663 H         1 UNK         0.3156 
    148 H148      -50.8573  -25.5900    8.1539 H         1 UNK         0.0589 
    149 H149      -50.9769  -23.2503    6.1809 H         1 UNK         0.0808 
    150 H150      -51.8979  -24.7525    6.0798 H         1 UNK         0.0808 
    151 H151      -52.1980  -23.6255    7.3906 H         1 UNK         0.0808 
    152 H152      -49.5436  -25.3834    5.7714 H         1 UNK         0.3098 
    153 H153      -47.3410  -26.0791    5.2410 H         1 UNK         0.0720 
    154 H154      -45.4491  -27.5933    5.7743 H         1 UNK         0.0791 
    155 H155      -46.0675  -27.8480    7.4047 H         1 UNK         0.0791 
    156 H156      -45.4867  -26.2606    6.9189 H         1 UNK         0.0791 
    157 H157      -48.0251  -28.7882    6.2723 H         1 UNK         0.3028 
@<TRIPOS>BOND
     1    1    2 1    
     2    1   82 1    
     3    1   83 1    
     4    1   84 1    
     5    2    3 2    
     6    2    4 am   BACKBONE|DICT|INTERRES
     7    4    5 1    
     8    4   85 1    
     9    5    6 1    
    10    5   80 1    
    11    5   86 1    
    12    6    7 1    
    13    6   87 1    
    14    6   88 1    
    15    7    8 1    
    16    8    9 1    
    17    8   89 1    
    18    8   90 1    
    19    9   10 ar   
    20    9   14 ar   
    21   10   11 ar   
    22   10   91 1    
    23   11   12 ar   
    24   11   58 1    
    25   12   13 ar   
    26   12   92 1    
    27   13   14 ar   
    28   13   15 1    
    29   14   93 1    
    30   15   16 1    
    31   15   94 1    
    32   15   95 1    
    33   16   17 1    
    34   17   18 1    
    35   17   96 1    
    36   17   97 1    
    37   18   19 1    
    38   18   22 1    
    39   18   98 1    
    40   19   20 am   BACKBONE|DICT|INTERRES
    41   19   21 2    
    42   20   99 1    
    43   20  100 1    
    44   22   23 am   BACKBONE|DICT|INTERRES
    45   22  101 1    
    46   23   24 2    
    47   23   25 1    
    48   25   26 1    
    49   25   27 1    
    50   25  102 1    
    51   26  103 1    
    52   26  104 1    
    53   26  105 1    
    54   27   28 am   BACKBONE|DICT|INTERRES
    55   27  106 1    
    56   28   29 2    
    57   28   30 1    
    58   30   31 1    
    59   30   32 1    
    60   30  107 1    
    61   31  108 1    
    62   31  109 1    
    63   31  110 1    
    64   32   33 am   BACKBONE|DICT|INTERRES
    65   32  111 1    
    66   33   34 2    
    67   33   35 1    
    68   35   36 1    
    69   35   37 1    
    70   35  112 1    
    71   36  113 1    
    72   36  114 1    
    73   36  115 1    
    74   37   38 am   BACKBONE|DICT|INTERRES
    75   37  116 1    
    76   38   39 2    
    77   38   40 1    
    78   40   41 1    
    79   40   42 1    
    80   40  117 1    
    81   41  118 1    
    82   41  119 1    
    83   41  120 1    
    84   42   43 am   BACKBONE|DICT|INTERRES
    85   42  121 1    
    86   43   44 2    
    87   43   45 1    
    88   45   46 1    
    89   45   47 1    
    90   45  122 1    
    91   46  123 1    
    92   46  124 1    
    93   46  125 1    
    94   47   48 am   BACKBONE|DICT|INTERRES
    95   47  126 1    
    96   48   49 2    
    97   48   50 1    
    98   50   51 1    
    99   50   52 1    
   100   50  127 1    
   101   51  128 1    
   102   51  129 1    
   103   51  130 1    
   104   52   53 am   BACKBONE|DICT|INTERRES
   105   52  131 1    
   106   53   54 2    
   107   53   55 1    
   108   55   56 1    
   109   55   59 1    
   110   55  132 1    
   111   56   57 1    
   112   56  133 1    
   113   56  134 1    
   114   57   58 1    
   115   58  135 1    
   116   58  136 1    
   117   59   60 am   BACKBONE|DICT|INTERRES
   118   59  137 1    
   119   60   61 2    
   120   60   62 1    
   121   62   63 1    
   122   62   64 1    
   123   62  138 1    
   124   63  139 1    
   125   63  140 1    
   126   63  141 1    
   127   64   65 am   BACKBONE|DICT|INTERRES
   128   64  142 1    
   129   65   66 2    
   130   65   67 1    
   131   67   68 1    
   132   67   69 1    
   133   67  143 1    
   134   68  144 1    
   135   68  145 1    
   136   68  146 1    
   137   69   70 am   BACKBONE|DICT|INTERRES
   138   69  147 1    
   139   70   71 2    
   140   70   72 1    
   141   72   73 1    
   142   72   74 1    
   143   72  148 1    
   144   73  149 1    
   145   73  150 1    
   146   73  151 1    
   147   74   75 am   BACKBONE|DICT|INTERRES
   148   74  152 1    
   149   75   76 2    
   150   75   77 1    
   151   77   78 1    
   152   77   79 1    
   153   77  153 1    
   154   78  154 1    
   155   78  155 1    
   156   78  156 1    
   157   79   80 am   BACKBONE|DICT|INTERRES
   158   79  157 1    
   159   80   81 2    
@<TRIPOS>SUBSTRUCTURE
     1 UNK         1 GROUP             0       ****    0 ROOT    
