@<TRIPOS>MOLECULE
3R207
157   159    1
SMALL
USER_CHARGES


@<TRIPOS>ATOM
      1 CA        -54.3583  -22.4476    5.0098 C.3       0 UNK        -0.1975 
      2 C         -53.7276  -22.9766    6.2896 C.2       0 UNK         0.4852 
      3 O         -53.7169  -22.2757    7.3021 O.2       0 UNK        -0.5216 
      4 N         -53.1968  -24.2065    6.2513 N.am      1 UNK        -0.4461 
      5 CA        -52.5472  -24.8792    7.3846 C.3       1 UNK         0.0864 
      6 C6        -52.5588  -26.4189    7.2176 C.3       14 UNK        -0.0898 
      7 S7        -51.7232  -27.0085    5.7024 S.3       14 UNK        -0.2598 
      8 C8        -52.4398  -28.6778    5.5280 C.3       14 UNK         0.0286 
      9 C9        -52.2326  -29.5360    6.7707 C.ar      14 UNK        -0.0844 
     10 C10       -50.9465  -29.7429    7.2788 C.ar      14 UNK        -0.0881 
     11 C11       -50.7501  -30.4891    8.4435 C.ar      14 UNK        -0.0643 
     12 C12       -51.8534  -31.0693    9.0773 C.ar      14 UNK        -0.0930 
     13 C13       -53.1427  -30.8890    8.5687 C.ar      14 UNK        -0.0827 
     14 C14       -53.3277  -30.1180    7.4173 C.ar      14 UNK        -0.1249 
     15 C15       -54.3305  -31.5309    9.2666 C.3       14 UNK         0.0141 
     16 S16       -55.2147  -30.3269   10.3037 S.3       14 UNK        -0.2313 
     17 C17       -56.0783  -31.4424   11.4709 C.3       14 UNK        -0.0915 
     18 CA        -55.5178  -31.3877   12.9206 C.3       13 UNK         0.0968 
     19 C         -54.0643  -31.9473   13.0193 C.2       13 UNK         0.5732 
     20 N         -53.9057  -33.2646   12.9507 N.am      13 UNK        -0.7310 
     21 O         -53.0840  -31.2092   13.1227 O.2       13 UNK        -0.5035 
     22 N         -55.6849  -30.0433   13.4878 N.am      13 UNK        -0.4233 
     23 C         -55.4671  -29.6839   14.7571 C.2       13 UNK         0.4989 
     24 O         -55.1663  -30.4810   15.6505 O.2       13 UNK        -0.4996 
     25 CA        -55.6230  -28.1791   15.0766 C.3       12 UNK         0.0216 
     26 CB        -55.2877  -27.8493   16.5431 C.3       12 UNK        -0.1964 
     27 N         -54.8143  -27.3230   14.1973 N.am      12 UNK        -0.4276 
     28 C         -55.0998  -27.0321   12.9185 C.2       12 UNK         0.5020 
     29 O         -56.1061  -27.4569   12.3457 O.2       12 UNK        -0.5489 
     30 CA        -54.0933  -26.1573   12.1418 C.3       11 UNK         0.0294 
     31 CB        -54.7376  -25.4282   10.9428 C.3       11 UNK        -0.2019 
     32 N         -53.3527  -25.2129   12.9848 N.am      11 UNK        -0.4493 
     33 C         -53.8562  -24.2214   13.7365 C.2       11 UNK         0.4932 
     34 O         -55.0571  -23.9517   13.8036 O.2       11 UNK        -0.5029 
     35 CA        -52.8400  -23.3973   14.5530 C.3       10 UNK         0.0280 
     36 CB        -53.4962  -22.6056   15.7044 C.3       10 UNK        -0.1976 
     37 N         -51.7054  -24.1860   15.0515 N.am      10 UNK        -0.4242 
     38 C         -51.7531  -25.2523   15.8675 C.2       10 UNK         0.5072 
     39 O         -52.8066  -25.7347   16.2839 O.2       10 UNK        -0.5224 
     40 CA        -50.4271  -25.9287   16.2773 C.3       9 UNK         0.0343 
     41 CB        -50.4532  -27.4244   15.9171 C.3       9 UNK        -0.2003 
     42 N         -49.2344  -25.3191   15.6830 N.am      9 UNK        -0.4272 
     43 C         -48.6597  -24.1777   16.0878 C.2       9 UNK         0.4988 
     44 O         -49.0192  -23.5432   17.0794 O.2       9 UNK        -0.5108 
     45 CA        -47.5316  -23.6189   15.1989 C.3       8 UNK         0.0248 
     46 CB        -46.1735  -24.2204   15.5935 C.3       8 UNK        -0.2001 
     47 N         -47.7714  -23.8329   13.7666 N.am      8 UNK        -0.4140 
     48 C         -48.8206  -23.3455   13.0855 C.2       8 UNK         0.5028 
     49 O         -49.6745  -22.6089   13.5772 O.2       8 UNK        -0.5428 
     50 CA        -48.9805  -23.8149   11.6332 C.3       7 UNK         0.0264 
     51 CB        -48.0425  -23.0310   10.7004 C.3       7 UNK        -0.1988 
     52 N         -48.7344  -25.2548   11.5187 N.am      7 UNK        -0.4454 
     53 C         -49.5797  -26.1973   11.9687 C.2       7 UNK         0.5027 
     54 O         -50.6814  -25.9435   12.4572 O.2       7 UNK        -0.5083 
     55 CA        -49.1017  -27.6632   11.9340 C.3       6 UNK         0.0844 
     56 C56       -49.6324  -28.4084   10.6886 C.3       14 UNK        -0.0967 
     57 S57       -49.2246  -30.1866   10.7599 S.3       14 UNK        -0.2604 
     58 C58       -49.3459  -30.6707    9.0075 C.3       14 UNK         0.0134 
     59 N         -47.6460  -27.7568   12.0695 N.am      6 UNK        -0.4116 
     60 C         -46.9877  -27.5495   13.2177 C.2       5 UNK         0.5034 
     61 O         -47.5434  -27.2884   14.2838 O.2       5 UNK        -0.5045 
     62 CA        -45.4506  -27.5830   13.1638 C.3       5 UNK         0.0224 
     63 CB        -44.9347  -29.0078   13.4194 C.3       5 UNK        -0.1978 
     64 N         -44.8973  -27.0819   11.9019 N.am      5 UNK        -0.4737 
     65 C         -45.0887  -25.8477   11.4156 C.2       4 UNK         0.5027 
     66 O         -45.7425  -24.9857   12.0024 O.2       4 UNK        -0.5211 
     67 CA        -44.4836  -25.5265   10.0352 C.3       4 UNK         0.0297 
     68 CB        -43.3358  -26.4806    9.6320 C.3       4 UNK        -0.1993 
     69 N         -45.4839  -25.4703    8.9579 N.am      4 UNK        -0.4486 
     70 C         -46.3961  -26.4012    8.6385 C.2       3 UNK         0.4961 
     71 O         -46.6433  -27.3948    9.3247 O.2       3 UNK        -0.5105 
     72 CA        -47.1504  -26.1713    7.3209 C.3       3 UNK         0.0299 
     73 CB        -47.9627  -27.3999    6.8754 C.3       3 UNK        -0.1972 
     74 N         -48.0576  -25.0342    7.4470 N.am      3 UNK        -0.4305 
     75 C         -48.0809  -23.9619    6.6479 C.2       2 UNK         0.5006 
     76 O         -47.2709  -23.7713    5.7389 O.2       2 UNK        -0.5106 
     77 CA        -49.2166  -22.9456    6.8950 C.3       2 UNK         0.0296 
     78 CB        -49.1498  -21.7370    5.9416 C.3       2 UNK        -0.2002 
     79 N         -50.5434  -23.5577    6.7833 N.am      2 UNK        -0.4032 
     80 C         -51.1297  -24.3464    7.6969 C.2       1 UNK         0.5000 
     81 O         -50.5834  -24.6713    8.7530 O.2       1 UNK        -0.5238 
     82 H82       -54.2909  -23.1673    4.1935 H         1 UNK         0.0889 
     83 H83       -53.8596  -21.5306    4.6958 H         1 UNK         0.0889 
     84 H84       -55.4113  -22.2225    5.1772 H         1 UNK         0.0889 
     85 H85       -53.2309  -24.7435    5.3949 H         1 UNK         0.3028 
     86 H86       -53.1401  -24.6557    8.2730 H         1 UNK         0.0864 
     87 H87       -53.5921  -26.7695    7.2005 H         1 UNK         0.0720 
     88 H88       -52.1004  -26.9043    8.0823 H         1 UNK         0.0720 
     89 H89       -53.5015  -28.5813    5.2952 H         1 UNK         0.0814 
     90 H90       -51.9800  -29.1738    4.6722 H         1 UNK         0.0814 
     91 H91       -50.1012  -29.3044    6.7692 H         1 UNK         0.1469 
     92 H92       -51.7067  -31.6528    9.9763 H         1 UNK         0.1381 
     93 H93       -54.3271  -29.9678    7.0318 H         1 UNK         0.1206 
     94 H94       -55.0183  -31.9488    8.5301 H         1 UNK         0.0813 
     95 H95       -53.9905  -32.3670    9.8798 H         1 UNK         0.0813 
     96 H96       -57.1328  -31.1577   11.4785 H         1 UNK         0.0638 
     97 H97       -56.0621  -32.4657   11.0917 H         1 UNK         0.0638 
     98 H98       -56.1398  -32.0465   13.5340 H         1 UNK         0.0568 
     99 H99       -52.9727  -33.6477   13.0020 H         1 UNK         0.3450 
    100 H100      -54.6978  -33.8840   12.8613 H         1 UNK         0.3450 
    101 H101      -55.9030  -29.3029   12.8248 H         1 UNK         0.2987 
    102 H102      -56.6759  -27.9314   14.9196 H         1 UNK         0.0766 
    103 H103      -55.9177  -28.4190   17.2286 H         1 UNK         0.0798 
    104 H104      -55.4495  -26.7918   16.7591 H         1 UNK         0.0798 
    105 H105      -54.2481  -28.0836   16.7807 H         1 UNK         0.0798 
    106 H106      -53.9833  -26.9151   14.6091 H         1 UNK         0.3198 
    107 H107      -53.3459  -26.8462   11.7417 H         1 UNK         0.0843 
    108 H108      -55.5824  -24.8099   11.2529 H         1 UNK         0.0831 
    109 H109      -55.1087  -26.1416   10.2056 H         1 UNK         0.0831 
    110 H110      -54.0180  -24.7822   10.4396 H         1 UNK         0.0831 
    111 H111      -52.3417  -25.3502   12.9805 H         1 UNK         0.3133 
    112 H112      -52.4183  -22.6716   13.8563 H         1 UNK         0.0566 
    113 H113      -53.9937  -23.2653   16.4164 H         1 UNK         0.0814 
    114 H114      -54.2469  -21.9113   15.3253 H         1 UNK         0.0814 
    115 H115      -52.7592  -22.0163   16.2503 H         1 UNK         0.0814 
    116 H116      -50.7988  -23.8656   14.7270 H         1 UNK         0.3091 
    117 H117      -50.3492  -25.8450   17.3631 H         1 UNK         0.0702 
    118 H118      -49.5281  -27.9215   16.2101 H         1 UNK         0.0785 
    119 H119      -50.5922  -27.5756   14.8468 H         1 UNK         0.0785 
    120 H120      -51.2700  -27.9384   16.4260 H         1 UNK         0.0785 
    121 H121      -48.8100  -25.8223   14.9109 H         1 UNK         0.2998 
    122 H122      -47.4865  -22.5402   15.3625 H         1 UNK         0.0697 
    123 H123      -45.3655  -23.8134   14.9849 H         1 UNK         0.0825 
    124 H124      -46.1630  -25.3045   15.4832 H         1 UNK         0.0825 
    125 H125      -45.9391  -23.9987   16.6354 H         1 UNK         0.0825 
    126 H126      -47.0850  -24.3843   13.2572 H         1 UNK         0.3029 
    127 H127      -50.0097  -23.6238   11.3193 H         1 UNK         0.0897 
    128 H128      -48.3913  -22.0045   10.5814 H         1 UNK         0.0792 
    129 H129      -48.0005  -23.4798    9.7115 H         1 UNK         0.0792 
    130 H130      -47.0221  -22.9794   11.0800 H         1 UNK         0.0792 
    131 H131      -47.8144  -25.5343   11.2059 H         1 UNK         0.3086 
    132 H132      -49.5424  -28.1513   12.8057 H         1 UNK         0.0583 
    133 H133      -50.7180  -28.3134   10.6137 H         1 UNK         0.1020 
    134 H134      -49.2224  -27.9744    9.7772 H         1 UNK         0.1020 
    135 H135      -48.6143  -30.0984    8.4348 H         1 UNK         0.0694 
    136 H136      -49.0616  -31.7193    8.9119 H         1 UNK         0.0694 
    137 H137      -47.1227  -27.9178   11.2139 H         1 UNK         0.2989 
    138 H138      -45.0836  -26.9364   13.9634 H         1 UNK         0.1055 
    139 H139      -45.2486  -29.6985   12.6354 H         1 UNK         0.0806 
    140 H140      -45.3144  -29.3956   14.3662 H         1 UNK         0.0806 
    141 H141      -43.8461  -29.0330   13.4749 H         1 UNK         0.0806 
    142 H142      -44.3742  -27.7379   11.3397 H         1 UNK         0.3061 
    143 H143      -44.0619  -24.5233   10.1203 H         1 UNK         0.0734 
    144 H144      -43.6882  -27.4948    9.4379 H         1 UNK         0.0832 
    145 H145      -42.8397  -26.1304    8.7264 H         1 UNK         0.0832 
    146 H146      -42.5721  -26.5339   10.4096 H         1 UNK         0.0832 
    147 H147      -45.4140  -24.6658    8.3493 H         1 UNK         0.3156 
    148 H148      -46.3934  -25.9821    6.5568 H         1 UNK         0.0589 
    149 H149      -48.3883  -27.2513    5.8826 H         1 UNK         0.0808 
    150 H150      -48.7854  -27.5990    7.5602 H         1 UNK         0.0808 
    151 H151      -47.3396  -28.2944    6.8326 H         1 UNK         0.0808 
    152 H152      -48.7825  -25.1012    8.1580 H         1 UNK         0.3098 
    153 H153      -49.1008  -22.5629    7.9099 H         1 UNK         0.0720 
    154 H154      -48.1920  -21.2219    6.0292 H         1 UNK         0.0791 
    155 H155      -49.9279  -21.0082    6.1699 H         1 UNK         0.0791 
    156 H156      -49.2655  -22.0368    4.8991 H         1 UNK         0.0791 
    157 H157      -51.0494  -23.3803    5.9283 H         1 UNK         0.3028 
@<TRIPOS>BOND
     1    1    2 1    
     2    1   82 1    
     3    1   83 1    
     4    1   84 1    
     5    2    3 2    
     6    2    4 am   BACKBONE|DICT|INTERRES
     7    4    5 1    
     8    4   85 1    
     9    5    6 1    
    10    5   80 1    
    11    5   86 1    
    12    6    7 1    
    13    6   87 1    
    14    6   88 1    
    15    7    8 1    
    16    8    9 1    
    17    8   89 1    
    18    8   90 1    
    19    9   10 ar   
    20    9   14 ar   
    21   10   11 ar   
    22   10   91 1    
    23   11   12 ar   
    24   11   58 1    
    25   12   13 ar   
    26   12   92 1    
    27   13   14 ar   
    28   13   15 1    
    29   14   93 1    
    30   15   16 1    
    31   15   94 1    
    32   15   95 1    
    33   16   17 1    
    34   17   18 1    
    35   17   96 1    
    36   17   97 1    
    37   18   19 1    
    38   18   22 1    
    39   18   98 1    
    40   19   20 am   BACKBONE|DICT|INTERRES
    41   19   21 2    
    42   20   99 1    
    43   20  100 1    
    44   22   23 am   BACKBONE|DICT|INTERRES
    45   22  101 1    
    46   23   24 2    
    47   23   25 1    
    48   25   26 1    
    49   25   27 1    
    50   25  102 1    
    51   26  103 1    
    52   26  104 1    
    53   26  105 1    
    54   27   28 am   BACKBONE|DICT|INTERRES
    55   27  106 1    
    56   28   29 2    
    57   28   30 1    
    58   30   31 1    
    59   30   32 1    
    60   30  107 1    
    61   31  108 1    
    62   31  109 1    
    63   31  110 1    
    64   32   33 am   BACKBONE|DICT|INTERRES
    65   32  111 1    
    66   33   34 2    
    67   33   35 1    
    68   35   36 1    
    69   35   37 1    
    70   35  112 1    
    71   36  113 1    
    72   36  114 1    
    73   36  115 1    
    74   37   38 am   BACKBONE|DICT|INTERRES
    75   37  116 1    
    76   38   39 2    
    77   38   40 1    
    78   40   41 1    
    79   40   42 1    
    80   40  117 1    
    81   41  118 1    
    82   41  119 1    
    83   41  120 1    
    84   42   43 am   BACKBONE|DICT|INTERRES
    85   42  121 1    
    86   43   44 2    
    87   43   45 1    
    88   45   46 1    
    89   45   47 1    
    90   45  122 1    
    91   46  123 1    
    92   46  124 1    
    93   46  125 1    
    94   47   48 am   BACKBONE|DICT|INTERRES
    95   47  126 1    
    96   48   49 2    
    97   48   50 1    
    98   50   51 1    
    99   50   52 1    
   100   50  127 1    
   101   51  128 1    
   102   51  129 1    
   103   51  130 1    
   104   52   53 am   BACKBONE|DICT|INTERRES
   105   52  131 1    
   106   53   54 2    
   107   53   55 1    
   108   55   56 1    
   109   55   59 1    
   110   55  132 1    
   111   56   57 1    
   112   56  133 1    
   113   56  134 1    
   114   57   58 1    
   115   58  135 1    
   116   58  136 1    
   117   59   60 am   BACKBONE|DICT|INTERRES
   118   59  137 1    
   119   60   61 2    
   120   60   62 1    
   121   62   63 1    
   122   62   64 1    
   123   62  138 1    
   124   63  139 1    
   125   63  140 1    
   126   63  141 1    
   127   64   65 am   BACKBONE|DICT|INTERRES
   128   64  142 1    
   129   65   66 2    
   130   65   67 1    
   131   67   68 1    
   132   67   69 1    
   133   67  143 1    
   134   68  144 1    
   135   68  145 1    
   136   68  146 1    
   137   69   70 am   BACKBONE|DICT|INTERRES
   138   69  147 1    
   139   70   71 2    
   140   70   72 1    
   141   72   73 1    
   142   72   74 1    
   143   72  148 1    
   144   73  149 1    
   145   73  150 1    
   146   73  151 1    
   147   74   75 am   BACKBONE|DICT|INTERRES
   148   74  152 1    
   149   75   76 2    
   150   75   77 1    
   151   77   78 1    
   152   77   79 1    
   153   77  153 1    
   154   78  154 1    
   155   78  155 1    
   156   78  156 1    
   157   79   80 am   BACKBONE|DICT|INTERRES
   158   79  157 1    
   159   80   81 2    
@<TRIPOS>SUBSTRUCTURE
     1 UNK         1 GROUP             0       ****    0 ROOT    
