@<TRIPOS>MOLECULE
3R207
157   159    1
SMALL
USER_CHARGES


@<TRIPOS>ATOM
      1 CA        -44.3419  -29.1533    7.5395 C.3       0 UNK        -0.1975 
      2 C         -44.9752  -28.9178    6.1768 C.2       0 UNK         0.4852 
      3 O         -44.2623  -28.8049    5.1780 O.2       0 UNK        -0.5216 
      4 N         -46.3092  -28.8254    6.1247 N.am      1 UNK        -0.4461 
      5 CA        -47.1142  -28.5836    4.9232 C.3       1 UNK         0.0864 
      6 C6        -48.5550  -29.1435    5.0780 C.3       14 UNK        -0.0898 
      7 S7        -49.4285  -28.6666    6.6156 S.3       14 UNK        -0.2598 
      8 C8        -51.0116  -28.0872    5.9322 C.3       14 UNK         0.0286 
      9 C9        -52.0818  -27.9200    7.0030 C.ar      14 UNK        -0.0844 
     10 C10       -52.5650  -26.6490    7.3330 C.ar      14 UNK        -0.0881 
     11 C11       -53.6176  -26.5050    8.2433 C.ar      14 UNK        -0.0643 
     12 C12       -54.1780  -27.6425    8.8298 C.ar      14 UNK        -0.0930 
     13 C13       -53.6788  -28.9143    8.5423 C.ar      14 UNK        -0.0827 
     14 C14       -52.6390  -29.0475    7.6169 C.ar      14 UNK        -0.1249 
     15 C15       -54.2959  -30.1432    9.1984 C.3       14 UNK         0.0141 
     16 S16       -53.3843  -30.6863   10.6824 S.3       14 UNK        -0.2313 
     17 C17       -53.8103  -29.4022   11.9076 C.3       14 UNK        -0.0915 
     18 CA        -55.1022  -29.7334   12.7025 C.3       13 UNK         0.0968 
     19 C         -54.8158  -30.6296   13.9399 C.2       13 UNK         0.5732 
     20 N         -54.6742  -31.9326   13.7414 N.am      13 UNK        -0.7310 
     21 O         -54.6923  -30.1548   15.0678 O.2       13 UNK        -0.5035 
     22 N         -55.8262  -28.5068   13.0599 N.am      13 UNK        -0.4233 
     23 C         -57.1163  -28.4507   13.4067 C.2       13 UNK         0.4989 
     24 O         -57.8768  -29.4204   13.3774 O.2       13 UNK        -0.4996 
     25 CA        -57.6328  -27.0750   13.8776 C.3       12 UNK         0.0216 
     26 CB        -59.1668  -27.0341   14.0150 C.3       12 UNK        -0.1964 
     27 N         -57.0307  -26.6736   15.1530 N.am      12 UNK        -0.4276 
     28 C         -55.7723  -26.2454   15.3067 C.2       12 UNK         0.5020 
     29 O         -54.9820  -26.1147   14.3690 O.2       12 UNK        -0.5489 
     30 CA        -55.3142  -25.9491   16.7388 C.3       11 UNK         0.0294 
     31 CB        -55.1626  -27.2556   17.5436 C.3       11 UNK        -0.2019 
     32 N         -54.0322  -25.2518   16.6899 N.am      11 UNK        -0.4493 
     33 C         -53.4880  -24.5359   17.6811 C.2       11 UNK         0.4932 
     34 O         -54.0562  -24.3029   18.7498 O.2       11 UNK        -0.5029 
     35 CA        -52.0519  -24.0320   17.4357 C.3       10 UNK         0.0280 
     36 CB        -51.4013  -23.3854   18.6770 C.3       10 UNK        -0.1976 
     37 N         -51.2081  -25.0957   16.8785 N.am      10 UNK        -0.4242 
     38 C         -50.8881  -26.2683   17.4487 C.2       10 UNK         0.5072 
     39 O         -51.1366  -26.5649   18.6181 O.2       10 UNK        -0.5224 
     40 CA        -50.2058  -27.3131   16.5496 C.3       9 UNK         0.0343 
     41 CB        -51.2665  -28.2496   15.9448 C.3       9 UNK        -0.2003 
     42 N         -49.4091  -26.7233   15.4704 N.am      9 UNK        -0.4272 
     43 C         -48.2250  -26.1175   15.6434 C.2       9 UNK         0.4988 
     44 O         -47.6561  -26.0229   16.7316 O.2       9 UNK        -0.5108 
     45 CA        -47.5672  -25.5025   14.3944 C.3       8 UNK         0.0248 
     46 CB        -46.9086  -26.5886   13.5289 C.3       8 UNK        -0.2001 
     47 N         -48.5088  -24.7245   13.5856 N.am      8 UNK        -0.4140 
     48 C         -49.1005  -23.5911   13.9920 C.2       8 UNK         0.5028 
     49 O         -48.8701  -23.0402   15.0686 O.2       8 UNK        -0.5428 
     50 CA        -50.1531  -22.9835   13.0530 C.3       7 UNK         0.0264 
     51 CB        -49.4978  -22.0741   12.0010 C.3       7 UNK        -0.1988 
     52 N         -50.9562  -24.0109   12.3897 N.am      7 UNK        -0.4454 
     53 C         -51.8741  -24.7678   13.0079 C.2       7 UNK         0.5027 
     54 O         -52.1467  -24.6657   14.2040 O.2       7 UNK        -0.5083 
     55 CA        -52.5806  -25.8429   12.1576 C.3       6 UNK         0.0844 
     56 C56       -53.7776  -25.2435   11.3759 C.3       14 UNK        -0.0967 
     57 S57       -53.2923  -24.2837    9.8942 S.3       14 UNK        -0.2604 
     58 C58       -54.1892  -25.1285    8.5539 C.3       14 UNK         0.0134 
     59 N         -51.6492  -26.5850   11.3042 N.am      6 UNK        -0.4116 
     60 C         -50.6279  -27.3261   11.7564 C.2       5 UNK         0.5034 
     61 O         -50.4123  -27.5408   12.9472 O.2       5 UNK        -0.5045 
     62 CA        -49.6352  -27.8670   10.7174 C.3       5 UNK         0.0224 
     63 CB        -50.0103  -29.2888   10.2823 C.3       5 UNK        -0.1978 
     64 N         -49.4904  -27.0066    9.5416 N.am      5 UNK        -0.4737 
     65 C         -49.0121  -25.7571    9.5779 C.2       4 UNK         0.5027 
     66 O         -48.7085  -25.1676   10.6178 O.2       4 UNK        -0.5211 
     67 CA        -48.8715  -25.0395    8.2269 C.3       4 UNK         0.0297 
     68 CB        -49.8666  -23.8735    8.1261 C.3       4 UNK        -0.1993 
     69 N         -47.5178  -24.5354    7.9919 N.am      4 UNK        -0.4486 
     70 C         -46.4038  -25.2777    7.9915 C.2       3 UNK         0.4961 
     71 O         -46.3648  -26.4829    8.2454 O.2       3 UNK        -0.5105 
     72 CA        -45.1249  -24.5750    7.5186 C.3       3 UNK         0.0299 
     73 CB        -43.9049  -24.9644    8.3715 C.3       3 UNK        -0.1972 
     74 N         -44.9104  -24.9950    6.1380 N.am      3 UNK        -0.4305 
     75 C         -45.4896  -24.4226    5.0735 C.2       2 UNK         0.5006 
     76 O         -46.0370  -23.3195    5.0939 O.2       2 UNK        -0.5106 
     77 CA        -45.5173  -25.2644    3.7872 C.3       2 UNK         0.0296 
     78 CB        -44.1714  -25.1896    3.0481 C.3       2 UNK        -0.2002 
     79 N         -45.8501  -26.6636    4.0740 N.am      2 UNK        -0.4032 
     80 C         -47.0480  -27.0998    4.4936 C.2       1 UNK         0.5000 
     81 O         -48.0462  -26.3801    4.5653 O.2       1 UNK        -0.5238 
     82 H82       -43.9300  -30.1605    7.5926 H         1 UNK         0.0889 
     83 H83       -45.0647  -29.0348    8.3470 H         1 UNK         0.0889 
     84 H84       -43.5322  -28.4442    7.7063 H         1 UNK         0.0889 
     85 H85       -46.8388  -28.8448    6.9861 H         1 UNK         0.3028 
     86 H86       -46.6600  -29.1458    4.1038 H         1 UNK         0.0864 
     87 H87       -49.1557  -28.8781    4.2060 H         1 UNK         0.0720 
     88 H88       -48.5104  -30.2335    5.0699 H         1 UNK         0.0720 
     89 H89       -51.3710  -28.8053    5.1936 H         1 UNK         0.0814 
     90 H90       -50.8436  -27.1515    5.3961 H         1 UNK         0.0814 
     91 H91       -52.1494  -25.7734    6.8537 H         1 UNK         0.1469 
     92 H92       -55.0135  -27.5418    9.5077 H         1 UNK         0.1381 
     93 H93       -52.2665  -30.0317    7.3668 H         1 UNK         0.1206 
     94 H94       -55.3379  -29.9553    9.4616 H         1 UNK         0.0813 
     95 H95       -54.3117  -30.9653    8.4814 H         1 UNK         0.0813 
     96 H96       -53.9164  -28.4574   11.3803 H         1 UNK         0.0638 
     97 H97       -52.9593  -29.2586   12.5765 H         1 UNK         0.0638 
     98 H98       -55.7707  -30.2949   12.0467 H         1 UNK         0.0568 
     99 H99       -54.7376  -32.3247   12.8148 H         1 UNK         0.3450 
    100 H100      -54.4768  -32.5297   14.5286 H         1 UNK         0.3450 
    101 H101      -55.2657  -27.6820   13.2513 H         1 UNK         0.2987 
    102 H102      -57.3512  -26.3453   13.1149 H         1 UNK         0.0766 
    103 H103      -59.5152  -26.0347   14.2767 H         1 UNK         0.0798 
    104 H104      -59.5250  -27.7254   14.7789 H         1 UNK         0.0798 
    105 H105      -59.6501  -27.3071   13.0758 H         1 UNK         0.0798 
    106 H106      -57.6061  -26.7882   15.9753 H         1 UNK         0.3198 
    107 H107      -56.0563  -25.3022   17.2114 H         1 UNK         0.0843 
    108 H108      -56.1080  -27.7947   17.6115 H         1 UNK         0.0831 
    109 H109      -54.8314  -27.0620   18.5640 H         1 UNK         0.0831 
    110 H110      -54.4380  -27.9275   17.0806 H         1 UNK         0.0831 
    111 H111      -53.5484  -25.3266   15.7980 H         1 UNK         0.3133 
    112 H112      -52.1219  -23.2638   16.6642 H         1 UNK         0.0566 
    113 H113      -50.3890  -23.0445   18.4595 H         1 UNK         0.0814 
    114 H114      -51.9728  -22.5170   19.0064 H         1 UNK         0.0814 
    115 H115      -51.3499  -24.0764   19.5187 H         1 UNK         0.0814 
    116 H116      -51.0175  -24.9963   15.8875 H         1 UNK         0.3091 
    117 H117      -49.5416  -27.9102   17.1780 H         1 UNK         0.0702 
    118 H118      -50.8073  -29.0391   15.3497 H         1 UNK         0.0785 
    119 H119      -51.9631  -27.7093   15.3014 H         1 UNK         0.0785 
    120 H120      -51.8550  -28.7331   16.7258 H         1 UNK         0.0785 
    121 H121      -49.7798  -26.8276   14.5278 H         1 UNK         0.2998 
    122 H122      -46.7839  -24.8201   14.7313 H         1 UNK         0.0697 
    123 H123      -47.6261  -27.3467   13.2168 H         1 UNK         0.0825 
    124 H124      -46.1205  -27.0996   14.0833 H         1 UNK         0.0825 
    125 H125      -46.4544  -26.1654   12.6324 H         1 UNK         0.0825 
    126 H126      -48.7124  -25.0629   12.6498 H         1 UNK         0.3029 
    127 H127      -50.8236  -22.3708   13.6600 H         1 UNK         0.0897 
    128 H128      -50.2447  -21.6117   11.3555 H         1 UNK         0.0792 
    129 H129      -48.9398  -21.2683   12.4796 H         1 UNK         0.0792 
    130 H130      -48.7983  -22.6203   11.3676 H         1 UNK         0.0792 
    131 H131      -50.7544  -24.1906   11.4158 H         1 UNK         0.3086 
    132 H132      -52.9817  -26.5714   12.8634 H         1 UNK         0.0583 
    133 H133      -54.4582  -26.0429   11.0921 H         1 UNK         0.1020 
    134 H134      -54.3749  -24.5995   12.0254 H         1 UNK         0.1020 
    135 H135      -55.2464  -25.2012    8.8142 H         1 UNK         0.0694 
    136 H136      -54.1430  -24.5054    7.6594 H         1 UNK         0.0694 
    137 H137      -51.7543  -26.4586   10.3076 H         1 UNK         0.2989 
    138 H138      -48.6586  -27.9155   11.2016 H         1 UNK         0.1055 
    139 H139      -50.1322  -29.9450   11.1453 H         1 UNK         0.0806 
    140 H140      -49.2408  -29.7271    9.6469 H         1 UNK         0.0806 
    141 H141      -50.9473  -29.3012    9.7297 H         1 UNK         0.0806 
    142 H142      -49.7003  -27.4271    8.6444 H         1 UNK         0.3061 
    143 H143      -49.0930  -25.7464    7.4246 H         1 UNK         0.0734 
    144 H144      -50.8893  -24.2238    8.2561 H         1 UNK         0.0832 
    145 H145      -49.6823  -23.1160    8.8889 H         1 UNK         0.0832 
    146 H146      -49.8163  -23.3896    7.1505 H         1 UNK         0.0832 
    147 H147      -47.4405  -23.5596    7.7444 H         1 UNK         0.3156 
    148 H148      -45.2526  -23.4916    7.5735 H         1 UNK         0.0589 
    149 H149      -43.7167  -26.0382    8.3540 H         1 UNK         0.0808 
    150 H150      -43.0027  -24.4619    8.0225 H         1 UNK         0.0808 
    151 H151      -44.0544  -24.6778    9.4132 H         1 UNK         0.0808 
    152 H152      -44.5133  -25.9149    6.0173 H         1 UNK         0.3098 
    153 H153      -46.2914  -24.8557    3.1341 H         1 UNK         0.0720 
    154 H154      -44.2097  -25.7295    2.1018 H         1 UNK         0.0791 
    155 H155      -43.3572  -25.6094    3.6402 H         1 UNK         0.0791 
    156 H156      -43.9099  -24.1554    2.8196 H         1 UNK         0.0791 
    157 H157      -45.0838  -27.3300    4.0954 H         1 UNK         0.3028 
@<TRIPOS>BOND
     1    1    2 1    
     2    1   82 1    
     3    1   83 1    
     4    1   84 1    
     5    2    3 2    
     6    2    4 am   BACKBONE|DICT|INTERRES
     7    4    5 1    
     8    4   85 1    
     9    5    6 1    
    10    5   80 1    
    11    5   86 1    
    12    6    7 1    
    13    6   87 1    
    14    6   88 1    
    15    7    8 1    
    16    8    9 1    
    17    8   89 1    
    18    8   90 1    
    19    9   10 ar   
    20    9   14 ar   
    21   10   11 ar   
    22   10   91 1    
    23   11   12 ar   
    24   11   58 1    
    25   12   13 ar   
    26   12   92 1    
    27   13   14 ar   
    28   13   15 1    
    29   14   93 1    
    30   15   16 1    
    31   15   94 1    
    32   15   95 1    
    33   16   17 1    
    34   17   18 1    
    35   17   96 1    
    36   17   97 1    
    37   18   19 1    
    38   18   22 1    
    39   18   98 1    
    40   19   20 am   BACKBONE|DICT|INTERRES
    41   19   21 2    
    42   20   99 1    
    43   20  100 1    
    44   22   23 am   BACKBONE|DICT|INTERRES
    45   22  101 1    
    46   23   24 2    
    47   23   25 1    
    48   25   26 1    
    49   25   27 1    
    50   25  102 1    
    51   26  103 1    
    52   26  104 1    
    53   26  105 1    
    54   27   28 am   BACKBONE|DICT|INTERRES
    55   27  106 1    
    56   28   29 2    
    57   28   30 1    
    58   30   31 1    
    59   30   32 1    
    60   30  107 1    
    61   31  108 1    
    62   31  109 1    
    63   31  110 1    
    64   32   33 am   BACKBONE|DICT|INTERRES
    65   32  111 1    
    66   33   34 2    
    67   33   35 1    
    68   35   36 1    
    69   35   37 1    
    70   35  112 1    
    71   36  113 1    
    72   36  114 1    
    73   36  115 1    
    74   37   38 am   BACKBONE|DICT|INTERRES
    75   37  116 1    
    76   38   39 2    
    77   38   40 1    
    78   40   41 1    
    79   40   42 1    
    80   40  117 1    
    81   41  118 1    
    82   41  119 1    
    83   41  120 1    
    84   42   43 am   BACKBONE|DICT|INTERRES
    85   42  121 1    
    86   43   44 2    
    87   43   45 1    
    88   45   46 1    
    89   45   47 1    
    90   45  122 1    
    91   46  123 1    
    92   46  124 1    
    93   46  125 1    
    94   47   48 am   BACKBONE|DICT|INTERRES
    95   47  126 1    
    96   48   49 2    
    97   48   50 1    
    98   50   51 1    
    99   50   52 1    
   100   50  127 1    
   101   51  128 1    
   102   51  129 1    
   103   51  130 1    
   104   52   53 am   BACKBONE|DICT|INTERRES
   105   52  131 1    
   106   53   54 2    
   107   53   55 1    
   108   55   56 1    
   109   55   59 1    
   110   55  132 1    
   111   56   57 1    
   112   56  133 1    
   113   56  134 1    
   114   57   58 1    
   115   58  135 1    
   116   58  136 1    
   117   59   60 am   BACKBONE|DICT|INTERRES
   118   59  137 1    
   119   60   61 2    
   120   60   62 1    
   121   62   63 1    
   122   62   64 1    
   123   62  138 1    
   124   63  139 1    
   125   63  140 1    
   126   63  141 1    
   127   64   65 am   BACKBONE|DICT|INTERRES
   128   64  142 1    
   129   65   66 2    
   130   65   67 1    
   131   67   68 1    
   132   67   69 1    
   133   67  143 1    
   134   68  144 1    
   135   68  145 1    
   136   68  146 1    
   137   69   70 am   BACKBONE|DICT|INTERRES
   138   69  147 1    
   139   70   71 2    
   140   70   72 1    
   141   72   73 1    
   142   72   74 1    
   143   72  148 1    
   144   73  149 1    
   145   73  150 1    
   146   73  151 1    
   147   74   75 am   BACKBONE|DICT|INTERRES
   148   74  152 1    
   149   75   76 2    
   150   75   77 1    
   151   77   78 1    
   152   77   79 1    
   153   77  153 1    
   154   78  154 1    
   155   78  155 1    
   156   78  156 1    
   157   79   80 am   BACKBONE|DICT|INTERRES
   158   79  157 1    
   159   80   81 2    
@<TRIPOS>SUBSTRUCTURE
     1 UNK         1 GROUP             0       ****    0 ROOT    
