@<TRIPOS>MOLECULE
3R207
157   159    1
SMALL
USER_CHARGES


@<TRIPOS>ATOM
      1 CA        -46.3195  -29.4683    4.2116 C.3       0 UNK        -0.1975 
      2 C         -47.1724  -28.7765    5.2635 C.2       0 UNK         0.4852 
      3 O         -46.7934  -28.7531    6.4347 O.2       0 UNK        -0.5216 
      4 N         -48.3068  -28.1908    4.8523 N.am      1 UNK        -0.4461 
      5 CA        -49.3023  -27.5263    5.7108 C.3       1 UNK         0.0864 
      6 C6        -50.0860  -28.5217    6.6077 C.3       14 UNK        -0.0898 
      7 S7        -50.8925  -29.8647    5.6650 S.3       14 UNK        -0.2598 
      8 C8        -52.5211  -29.1558    5.2505 C.3       14 UNK         0.0286 
      9 C9        -53.3099  -28.7385    6.4835 C.ar      14 UNK        -0.0844 
     10 C10       -53.6052  -27.3884    6.7005 C.ar      14 UNK        -0.0881 
     11 C11       -54.2898  -26.9905    7.8512 C.ar      14 UNK        -0.0643 
     12 C12       -54.7093  -27.9552    8.7702 C.ar      14 UNK        -0.0930 
     13 C13       -54.3875  -29.3010    8.5829 C.ar      14 UNK        -0.0827 
     14 C14       -53.7070  -29.6928    7.4269 C.ar      14 UNK        -0.1249 
     15 C15       -54.7093  -30.3020    9.6789 C.3       14 UNK         0.0141 
     16 S16       -53.5331  -30.0896   11.0536 S.3       14 UNK        -0.2313 
     17 C17       -54.3884  -30.9105   12.4395 C.3       14 UNK        -0.0915 
     18 CA        -55.6417  -30.1519   12.9604 C.3       13 UNK         0.0968 
     19 C         -56.2395  -30.8444   14.2195 C.2       13 UNK         0.5732 
     20 N         -56.3770  -30.1743   15.3589 N.am      13 UNK        -0.7310 
     21 O         -56.6032  -32.0166   14.1567 O.2       13 UNK        -0.5035 
     22 N         -55.4028  -28.7112   13.1389 N.am      13 UNK        -0.4233 
     23 C         -56.3431  -27.7705   12.9739 C.2       13 UNK         0.4989 
     24 O         -57.4737  -28.0142   12.5481 O.2       13 UNK        -0.4996 
     25 CA        -55.9764  -26.3122   13.3269 C.3       12 UNK         0.0216 
     26 CB        -57.1921  -25.5144   13.8450 C.3       12 UNK        -0.1964 
     27 N         -54.8451  -26.1639   14.2512 N.am      12 UNK        -0.4276 
     28 C         -54.7285  -26.6757   15.4832 C.2       12 UNK         0.5020 
     29 O         -55.5807  -27.3969   16.0085 O.2       12 UNK        -0.5489 
     30 CA        -53.4146  -26.3598   16.2253 C.3       11 UNK         0.0294 
     31 CB        -53.3661  -27.0053   17.6251 C.3       11 UNK        -0.2019 
     32 N         -52.1858  -26.7090   15.4946 N.am      11 UNK        -0.4493 
     33 C         -51.9040  -27.8544   14.8490 C.2       11 UNK         0.4932 
     34 O         -52.7434  -28.7150   14.5837 O.2       11 UNK        -0.5029 
     35 CA        -50.4333  -28.1228   14.4673 C.3       10 UNK         0.0280 
     36 CB        -50.2407  -28.4824   12.9833 C.3       10 UNK        -0.1976 
     37 N         -49.5074  -27.0516   14.8598 N.am      10 UNK        -0.4242 
     38 C         -48.9227  -26.9862   16.0649 C.2       10 UNK         0.5072 
     39 O         -49.0960  -27.8218   16.9539 O.2       10 UNK        -0.5224 
     40 CA        -47.9908  -25.7949   16.3528 C.3       9 UNK         0.0343 
     41 CB        -46.5615  -26.1094   15.8824 C.3       9 UNK        -0.2003 
     42 N         -48.4011  -24.5003   15.8007 N.am      9 UNK        -0.4272 
     43 C         -49.5877  -23.8965   15.9568 C.2       9 UNK         0.4988 
     44 O         -50.5677  -24.4270   16.4805 O.2       9 UNK        -0.5108 
     45 CA        -49.7047  -22.4490   15.4570 C.3       8 UNK         0.0248 
     46 CB        -48.3530  -21.7527   15.1879 C.3       8 UNK        -0.2001 
     47 N         -50.5092  -22.4316   14.2411 N.am      8 UNK        -0.4140 
     48 C         -51.4574  -21.5299   13.9513 C.2       8 UNK         0.5028 
     49 O         -51.7691  -20.6055   14.7042 O.2       8 UNK        -0.5428 
     50 CA        -52.1733  -21.6417   12.5876 C.3       7 UNK         0.0264 
     51 CB        -51.7866  -20.4632   11.6778 C.3       7 UNK        -0.1988 
     52 N         -51.9049  -22.8912   11.8724 N.am      7 UNK        -0.4454 
     53 C         -52.3857  -24.0902   12.2257 C.2       7 UNK         0.5027 
     54 O         -53.1703  -24.2603   13.1578 O.2       7 UNK        -0.5083 
     55 CA        -51.8553  -25.3212   11.4632 C.3       6 UNK         0.0844 
     56 C56       -52.8537  -25.8391   10.4078 C.3       14 UNK        -0.0967 
     57 S57       -53.0328  -24.7767    8.9305 S.3       14 UNK        -0.2604 
     58 C58       -54.5067  -25.5143    8.1470 C.3       14 UNK         0.0134 
     59 N         -50.5012  -25.1548   10.9181 N.am      6 UNK        -0.4116 
     60 C         -49.4105  -24.9072   11.6545 C.2       5 UNK         0.5034 
     61 O         -49.4290  -24.8205   12.8835 O.2       5 UNK        -0.5045 
     62 CA        -48.0962  -24.7317   10.8837 C.3       5 UNK         0.0224 
     63 CB        -47.0137  -24.0007   11.7063 C.3       5 UNK        -0.1978 
     64 N         -47.6024  -26.0122   10.3744 N.am      5 UNK        -0.4737 
     65 C         -47.1788  -27.0771   11.0732 C.2       4 UNK         0.5027 
     66 O         -47.1650  -27.1498   12.3009 O.2       4 UNK        -0.5211 
     67 CA        -46.6518  -28.2628   10.2457 C.3       4 UNK         0.0297 
     68 CB        -47.8092  -29.1944    9.8560 C.3       4 UNK        -0.1993 
     69 N         -45.9430  -27.8207    9.0399 N.am      4 UNK        -0.4486 
     70 C         -44.7666  -27.1745    9.0498 C.2       3 UNK         0.4961 
     71 O         -44.0857  -27.0004   10.0610 O.2       3 UNK        -0.5105 
     72 CA        -44.2818  -26.5916    7.7128 C.3       3 UNK         0.0299 
     73 CB        -43.5554  -27.6548    6.8725 C.3       3 UNK        -0.1972 
     74 N         -45.3849  -26.0055    6.9466 N.am      3 UNK        -0.4305 
     75 C         -45.9537  -24.8228    7.2280 C.2       2 UNK         0.5006 
     76 O         -45.5631  -24.0723    8.1220 O.2       2 UNK        -0.5106 
     77 CA        -47.1620  -24.3910    6.3761 C.3       2 UNK         0.0296 
     78 CB        -46.7108  -23.4555    5.2426 C.3       2 UNK        -0.2002 
     79 N         -47.9120  -25.5129    5.8057 N.am      2 UNK        -0.4032 
     80 C         -48.6796  -26.3565    6.5114 C.2       1 UNK         0.5000 
     81 O         -48.8526  -26.2568    7.7293 O.2       1 UNK        -0.5238 
     82 H82       -46.7702  -29.4154    3.2208 H         1 UNK         0.0889 
     83 H83       -46.1902  -30.5188    4.4699 H         1 UNK         0.0889 
     84 H84       -45.3343  -29.0055    4.1632 H         1 UNK         0.0889 
     85 H85       -48.5551  -28.2459    3.8741 H         1 UNK         0.3028 
     86 H86       -50.0256  -27.0627    5.0382 H         1 UNK         0.0864 
     87 H87       -49.4070  -28.9991    7.3128 H         1 UNK         0.0720 
     88 H88       -50.8268  -28.0006    7.2154 H         1 UNK         0.0720 
     89 H89       -53.0969  -29.8971    4.6949 H         1 UNK         0.0814 
     90 H90       -52.3774  -28.3119    4.5741 H         1 UNK         0.0814 
     91 H91       -53.2706  -26.6400    5.9952 H         1 UNK         0.1469 
     92 H92       -55.2218  -27.6527    9.6731 H         1 UNK         0.1381 
     93 H93       -53.4459  -30.7320    7.2797 H         1 UNK         0.1206 
     94 H94       -54.6577  -31.3263    9.3071 H         1 UNK         0.0813 
     95 H95       -55.7319  -30.1407   10.0196 H         1 UNK         0.0813 
     96 H96       -53.6586  -31.0216   13.2437 H         1 UNK         0.0638 
     97 H97       -54.6546  -31.9224   12.1289 H         1 UNK         0.0638 
     98 H98       -56.4107  -30.2689   12.1963 H         1 UNK         0.0568 
     99 H99       -56.7724  -30.6431   16.1576 H         1 UNK         0.3450 
    100 H100      -56.0785  -29.2065   15.4421 H         1 UNK         0.3450 
    101 H101      -54.5038  -28.4661   13.5400 H         1 UNK         0.2987 
    102 H102      -55.6613  -25.8503   12.3911 H         1 UNK         0.0766 
    103 H103      -56.9237  -24.4805   14.0625 H         1 UNK         0.0798 
    104 H104      -57.6033  -25.9530   14.7549 H         1 UNK         0.0798 
    105 H105      -57.9930  -25.4884   13.1050 H         1 UNK         0.0798 
    106 H106      -54.0990  -25.5504   13.9203 H         1 UNK         0.3198 
    107 H107      -53.3933  -25.2770   16.3597 H         1 UNK         0.0843 
    108 H108      -53.3769  -28.0943   17.5646 H         1 UNK         0.0831 
    109 H109      -54.2226  -26.7019   18.2284 H         1 UNK         0.0831 
    110 H110      -52.4677  -26.7083   18.1666 H         1 UNK         0.0831 
    111 H111      -51.4233  -26.0539   15.6407 H         1 UNK         0.3133 
    112 H112      -50.1706  -29.0273   15.0198 H         1 UNK         0.0566 
    113 H113      -50.2260  -27.6115   12.3362 H         1 UNK         0.0814 
    114 H114      -49.2916  -28.9982   12.8410 H         1 UNK         0.0814 
    115 H115      -51.0226  -29.1520   12.6231 H         1 UNK         0.0814 
    116 H116      -49.3210  -26.3176   14.1805 H         1 UNK         0.3091 
    117 H117      -47.9654  -25.6718   17.4374 H         1 UNK         0.0702 
    118 H118      -45.8565  -25.3441   16.2073 H         1 UNK         0.0785 
    119 H119      -46.5043  -26.1809   14.7953 H         1 UNK         0.0785 
    120 H120      -46.2149  -27.0603   16.2896 H         1 UNK         0.0785 
    121 H121      -47.6836  -23.9864   15.3116 H         1 UNK         0.2998 
    122 H122      -50.2154  -21.8995   16.2506 H         1 UNK         0.0697 
    123 H123      -47.8135  -22.2066   14.3561 H         1 UNK         0.0825 
    124 H124      -47.7083  -21.7842   16.0674 H         1 UNK         0.0825 
    125 H125      -48.5022  -20.7009   14.9428 H         1 UNK         0.0825 
    126 H126      -50.3352  -23.1991   13.5999 H         1 UNK         0.3029 
    127 H127      -53.2464  -21.5852   12.7841 H         1 UNK         0.0897 
    128 H128      -52.0144  -19.5090   12.1551 H         1 UNK         0.0792 
    129 H129      -52.3366  -20.4901   10.7368 H         1 UNK         0.0792 
    130 H130      -50.7206  -20.4644   11.4463 H         1 UNK         0.0792 
    131 H131      -51.2794  -22.8393   11.0816 H         1 UNK         0.3086 
    132 H132      -51.7915  -26.0985   12.2241 H         1 UNK         0.0583 
    133 H133      -52.5246  -26.8257   10.0762 H         1 UNK         0.1020 
    134 H134      -53.8344  -25.9932   10.8594 H         1 UNK         0.1020 
    135 H135      -55.3717  -25.3757    8.7975 H         1 UNK         0.0694 
    136 H136      -54.7272  -24.9777    7.2231 H         1 UNK         0.0694 
    137 H137      -50.4106  -25.2403    9.9145 H         1 UNK         0.2989 
    138 H138      -48.3122  -24.1139   10.0104 H         1 UNK         0.1055 
    139 H139      -47.3553  -23.0077   11.9997 H         1 UNK         0.0806 
    140 H140      -46.0999  -23.8718   11.1257 H         1 UNK         0.0806 
    141 H141      -46.7562  -24.5381   12.6195 H         1 UNK         0.0806 
    142 H142      -47.6641  -26.1221    9.3667 H         1 UNK         0.3061 
    143 H143      -45.9483  -28.8256   10.8628 H         1 UNK         0.0734 
    144 H144      -47.4846  -29.9784    9.1716 H         1 UNK         0.0832 
    145 H145      -48.2252  -29.6829   10.7373 H         1 UNK         0.0832 
    146 H146      -48.6205  -28.6430    9.3817 H         1 UNK         0.0832 
    147 H147      -46.3940  -27.9976    8.1446 H         1 UNK         0.3156 
    148 H148      -43.5629  -25.7999    7.9356 H         1 UNK         0.0589 
    149 H149      -44.1959  -28.5055    6.6409 H         1 UNK         0.0808 
    150 H150      -43.1939  -27.2396    5.9317 H         1 UNK         0.0808 
    151 H151      -42.6882  -28.0427    7.4086 H         1 UNK         0.0808 
    152 H152      -45.7927  -26.5826    6.2257 H         1 UNK         0.3098 
    153 H153      -47.8366  -23.8325    7.0289 H         1 UNK         0.0720 
    154 H154      -47.5628  -23.0728    4.6802 H         1 UNK         0.0791 
    155 H155      -46.0435  -23.9597    4.5423 H         1 UNK         0.0791 
    156 H156      -46.1741  -22.5925    5.6396 H         1 UNK         0.0791 
    157 H157      -47.8133  -25.6696    4.8127 H         1 UNK         0.3028 
@<TRIPOS>BOND
     1    1    2 1    
     2    1   82 1    
     3    1   83 1    
     4    1   84 1    
     5    2    3 2    
     6    2    4 am   BACKBONE|DICT|INTERRES
     7    4    5 1    
     8    4   85 1    
     9    5    6 1    
    10    5   80 1    
    11    5   86 1    
    12    6    7 1    
    13    6   87 1    
    14    6   88 1    
    15    7    8 1    
    16    8    9 1    
    17    8   89 1    
    18    8   90 1    
    19    9   10 ar   
    20    9   14 ar   
    21   10   11 ar   
    22   10   91 1    
    23   11   12 ar   
    24   11   58 1    
    25   12   13 ar   
    26   12   92 1    
    27   13   14 ar   
    28   13   15 1    
    29   14   93 1    
    30   15   16 1    
    31   15   94 1    
    32   15   95 1    
    33   16   17 1    
    34   17   18 1    
    35   17   96 1    
    36   17   97 1    
    37   18   19 1    
    38   18   22 1    
    39   18   98 1    
    40   19   20 am   BACKBONE|DICT|INTERRES
    41   19   21 2    
    42   20   99 1    
    43   20  100 1    
    44   22   23 am   BACKBONE|DICT|INTERRES
    45   22  101 1    
    46   23   24 2    
    47   23   25 1    
    48   25   26 1    
    49   25   27 1    
    50   25  102 1    
    51   26  103 1    
    52   26  104 1    
    53   26  105 1    
    54   27   28 am   BACKBONE|DICT|INTERRES
    55   27  106 1    
    56   28   29 2    
    57   28   30 1    
    58   30   31 1    
    59   30   32 1    
    60   30  107 1    
    61   31  108 1    
    62   31  109 1    
    63   31  110 1    
    64   32   33 am   BACKBONE|DICT|INTERRES
    65   32  111 1    
    66   33   34 2    
    67   33   35 1    
    68   35   36 1    
    69   35   37 1    
    70   35  112 1    
    71   36  113 1    
    72   36  114 1    
    73   36  115 1    
    74   37   38 am   BACKBONE|DICT|INTERRES
    75   37  116 1    
    76   38   39 2    
    77   38   40 1    
    78   40   41 1    
    79   40   42 1    
    80   40  117 1    
    81   41  118 1    
    82   41  119 1    
    83   41  120 1    
    84   42   43 am   BACKBONE|DICT|INTERRES
    85   42  121 1    
    86   43   44 2    
    87   43   45 1    
    88   45   46 1    
    89   45   47 1    
    90   45  122 1    
    91   46  123 1    
    92   46  124 1    
    93   46  125 1    
    94   47   48 am   BACKBONE|DICT|INTERRES
    95   47  126 1    
    96   48   49 2    
    97   48   50 1    
    98   50   51 1    
    99   50   52 1    
   100   50  127 1    
   101   51  128 1    
   102   51  129 1    
   103   51  130 1    
   104   52   53 am   BACKBONE|DICT|INTERRES
   105   52  131 1    
   106   53   54 2    
   107   53   55 1    
   108   55   56 1    
   109   55   59 1    
   110   55  132 1    
   111   56   57 1    
   112   56  133 1    
   113   56  134 1    
   114   57   58 1    
   115   58  135 1    
   116   58  136 1    
   117   59   60 am   BACKBONE|DICT|INTERRES
   118   59  137 1    
   119   60   61 2    
   120   60   62 1    
   121   62   63 1    
   122   62   64 1    
   123   62  138 1    
   124   63  139 1    
   125   63  140 1    
   126   63  141 1    
   127   64   65 am   BACKBONE|DICT|INTERRES
   128   64  142 1    
   129   65   66 2    
   130   65   67 1    
   131   67   68 1    
   132   67   69 1    
   133   67  143 1    
   134   68  144 1    
   135   68  145 1    
   136   68  146 1    
   137   69   70 am   BACKBONE|DICT|INTERRES
   138   69  147 1    
   139   70   71 2    
   140   70   72 1    
   141   72   73 1    
   142   72   74 1    
   143   72  148 1    
   144   73  149 1    
   145   73  150 1    
   146   73  151 1    
   147   74   75 am   BACKBONE|DICT|INTERRES
   148   74  152 1    
   149   75   76 2    
   150   75   77 1    
   151   77   78 1    
   152   77   79 1    
   153   77  153 1    
   154   78  154 1    
   155   78  155 1    
   156   78  156 1    
   157   79   80 am   BACKBONE|DICT|INTERRES
   158   79  157 1    
   159   80   81 2    
@<TRIPOS>SUBSTRUCTURE
     1 UNK         1 GROUP             0       ****    0 ROOT    
