@<TRIPOS>MOLECULE
3R207
157   159    1
SMALL
USER_CHARGES


@<TRIPOS>ATOM
      1 CA        -49.0164  -30.6263   11.0764 C.3       0 UNK        -0.1975 
      2 C         -48.1365  -30.0882    9.9582 C.2       0 UNK         0.4852 
      3 O         -47.2122  -30.7760    9.5238 O.2       0 UNK        -0.5216 
      4 N         -48.4297  -28.8709    9.4895 N.am      1 UNK        -0.4461 
      5 CA        -47.6970  -28.1699    8.4294 C.3       1 UNK         0.0864 
      6 C6        -48.6644  -27.5934    7.3610 C.3       14 UNK        -0.0898 
      7 S7        -48.7927  -28.6370    5.8751 S.3       14 UNK        -0.2598 
      8 C8        -49.8667  -29.9961    6.4442 C.3       14 UNK         0.0286 
      9 C9        -51.2327  -29.5392    6.9458 C.ar      14 UNK        -0.0844 
     10 C10       -52.0492  -28.7199    6.1583 C.ar      14 UNK        -0.0881 
     11 C11       -53.3188  -28.3441    6.6057 C.ar      14 UNK        -0.0643 
     12 C12       -53.7805  -28.8168    7.8369 C.ar      14 UNK        -0.0930 
     13 C13       -52.9730  -29.6252    8.6419 C.ar      14 UNK        -0.0827 
     14 C14       -51.6972  -29.9765    8.1908 C.ar      14 UNK        -0.1249 
     15 C15       -53.4881  -30.1621    9.9728 C.3       14 UNK         0.0141 
     16 S16       -53.5955  -28.8747   11.2589 S.3       14 UNK        -0.2313 
     17 C17       -55.3221  -28.2971   11.0704 C.3       14 UNK        -0.0915 
     18 CA        -56.2866  -28.7970   12.1776 C.3       13 UNK         0.0968 
     19 C         -56.5429  -30.3316   12.0913 C.2       13 UNK         0.5732 
     20 N         -56.1647  -31.1286   13.0838 N.am      13 UNK        -0.7310 
     21 O         -57.1042  -30.8039   11.1058 O.2       13 UNK        -0.5035 
     22 N         -55.8943  -28.2897   13.5001 N.am      13 UNK        -0.4233 
     23 C         -56.6987  -28.2358   14.5701 C.2       13 UNK         0.4989 
     24 O         -57.8747  -28.6010   14.5678 O.2       13 UNK        -0.4996 
     25 CA        -56.0907  -27.6754   15.8652 C.3       12 UNK         0.0216 
     26 CB        -55.4687  -28.8047   16.7032 C.3       12 UNK        -0.1964 
     27 N         -55.0778  -26.6487   15.6176 N.am      12 UNK        -0.4276 
     28 C         -55.3243  -25.3867   15.2445 C.2       12 UNK         0.5020 
     29 O         -56.4590  -24.9394   15.0693 O.2       12 UNK        -0.5489 
     30 CA        -54.0912  -24.4733   15.0667 C.3       11 UNK         0.0294 
     31 CB        -54.4686  -23.0026   14.8104 C.3       11 UNK        -0.2019 
     32 N         -53.1742  -24.5406   16.2126 N.am      11 UNK        -0.4493 
     33 C         -52.3261  -25.5452   16.4584 C.2       11 UNK         0.4932 
     34 O         -52.1954  -26.5173   15.7036 O.2       11 UNK        -0.5029 
     35 CA        -51.5430  -25.4873   17.7772 C.3       10 UNK         0.0280 
     36 CB        -52.4675  -25.6993   18.9893 C.3       10 UNK        -0.1976 
     37 N         -50.5526  -26.5520   17.7303 N.am      10 UNK        -0.4242 
     38 C         -49.3145  -26.5360   18.2323 C.2       10 UNK         0.5072 
     39 O         -48.8830  -25.6582   18.9809 O.2       10 UNK        -0.5224 
     40 CA        -48.3909  -27.6940   17.7956 C.3       9 UNK         0.0343 
     41 CB        -48.3395  -28.7817   18.8806 C.3       9 UNK        -0.2003 
     42 N         -48.7933  -28.3022   16.5178 N.am      9 UNK        -0.4272 
     43 C         -48.7843  -27.6620   15.3383 C.2       9 UNK         0.4988 
     44 O         -48.3152  -26.5330   15.1910 O.2       9 UNK        -0.5108 
     45 CA        -49.4507  -28.3552   14.1377 C.3       8 UNK         0.0248 
     46 CB        -50.1515  -29.6873   14.4809 C.3       8 UNK        -0.2001 
     47 N         -50.4431  -27.4294   13.5973 N.am      8 UNK        -0.4140 
     48 C         -50.4362  -26.9116   12.3665 C.2       8 UNK         0.5028 
     49 O         -49.6278  -27.2195   11.4823 O.2       8 UNK        -0.5428 
     50 CA        -51.5085  -25.8524   12.0846 C.3       7 UNK         0.0264 
     51 CB        -51.1292  -24.4957   12.7055 C.3       7 UNK        -0.1988 
     52 N         -51.6317  -25.7075   10.6431 N.am      7 UNK        -0.4454 
     53 C         -52.7098  -25.3337    9.9523 C.2       7 UNK         0.5027 
     54 O         -53.7690  -24.9754   10.4708 O.2       7 UNK        -0.5083 
     55 CA        -52.5543  -25.3502    8.4159 C.3       6 UNK         0.0844 
     56 C56       -53.9175  -25.3537    7.6777 C.3       14 UNK        -0.0967 
     57 S57       -53.7096  -25.6820    5.8920 S.3       14 UNK        -0.2604 
     58 C58       -54.1987  -27.4338    5.7595 C.3       14 UNK         0.0134 
     59 N         -51.6928  -24.2557    7.9525 N.am      6 UNK        -0.4116 
     60 C         -50.3650  -24.1944    8.1076 C.2       5 UNK         0.5034 
     61 O         -49.7058  -25.0443    8.7091 O.2       5 UNK        -0.5045 
     62 CA        -49.6572  -22.9721    7.5102 C.3       5 UNK         0.0224 
     63 CB        -49.6575  -21.8074    8.5136 C.3       5 UNK        -0.1978 
     64 N         -48.2748  -23.3333    7.2002 N.am      5 UNK        -0.4737 
     65 C         -47.8365  -23.7096    5.9915 C.2       4 UNK         0.5027 
     66 O         -48.5341  -23.6580    4.9775 O.2       4 UNK        -0.5211 
     67 CA        -46.4022  -24.2723    5.8833 C.3       4 UNK         0.0297 
     68 CB        -45.6803  -23.8075    4.6004 C.3       4 UNK        -0.1993 
     69 N         -45.5748  -24.0517    7.0759 N.am      4 UNK        -0.4486 
     70 C         -45.1298  -22.8821    7.5642 C.2       3 UNK         0.4961 
     71 O         -45.2904  -21.7979    7.0019 O.2       3 UNK        -0.5105 
     72 CA        -44.3973  -22.9345    8.9241 C.3       3 UNK         0.0299 
     73 CB        -44.4878  -21.6009    9.6967 C.3       3 UNK        -0.1972 
     74 N         -44.8212  -24.0552    9.7769 N.am      3 UNK        -0.4305 
     75 C         -46.0646  -24.3095   10.2128 C.2       2 UNK         0.5006 
     76 O         -47.0371  -23.5882    9.9896 O.2       2 UNK        -0.5106 
     77 CA        -46.2543  -25.6262   10.9830 C.3       2 UNK         0.0296 
     78 CB        -46.8935  -25.3756   12.3559 C.3       2 UNK        -0.2002 
     79 N         -47.0662  -26.5949   10.2403 N.am      2 UNK        -0.4032 
     80 C         -46.7775  -27.0801    9.0204 C.2       1 UNK         0.5000 
     81 O         -45.7947  -26.7218    8.3655 O.2       1 UNK        -0.5238 
     82 H82       -48.4440  -30.7050   11.9999 H         1 UNK         0.0889 
     83 H83       -49.3882  -31.6176   10.8190 H         1 UNK         0.0889 
     84 H84       -49.8769  -29.9823   11.2584 H         1 UNK         0.0889 
     85 H85       -49.1496  -28.3296    9.9613 H         1 UNK         0.3028 
     86 H86       -47.0174  -28.8675    7.9353 H         1 UNK         0.0864 
     87 H87       -49.6614  -27.4309    7.7721 H         1 UNK         0.0720 
     88 H88       -48.3367  -26.6154    7.0052 H         1 UNK         0.0720 
     89 H89       -50.0168  -30.6893    5.6157 H         1 UNK         0.0814 
     90 H90       -49.3370  -30.5575    7.2146 H         1 UNK         0.0814 
     91 H91       -51.6948  -28.3707    5.1980 H         1 UNK         0.1469 
     92 H92       -54.7730  -28.5488    8.1629 H         1 UNK         0.1381 
     93 H93       -51.0735  -30.6158    8.7998 H         1 UNK         0.1206 
     94 H94       -52.8275  -30.9487   10.3403 H         1 UNK         0.0813 
     95 H95       -54.4597  -30.6361    9.8278 H         1 UNK         0.0813 
     96 H96       -55.3055  -27.2064   11.0693 H         1 UNK         0.0638 
     97 H97       -55.7132  -28.5792   10.0945 H         1 UNK         0.0638 
     98 H98       -57.2560  -28.3444   11.9598 H         1 UNK         0.0568 
     99 H99       -56.3422  -32.1180   13.0159 H         1 UNK         0.3450 
    100 H100      -55.6997  -30.7523   13.8930 H         1 UNK         0.3450 
    101 H101      -54.9363  -27.9887   13.5897 H         1 UNK         0.2987 
    102 H102      -56.9010  -27.2264   16.4440 H         1 UNK         0.0766 
    103 H103      -56.2038  -29.5817   16.9183 H         1 UNK         0.0798 
    104 H104      -55.1050  -28.4319   17.6611 H         1 UNK         0.0798 
    105 H105      -54.6317  -29.2793   16.1894 H         1 UNK         0.0798 
    106 H106      -54.1041  -26.9126   15.7347 H         1 UNK         0.3198 
    107 H107      -53.5698  -24.8331   14.1789 H         1 UNK         0.0843 
    108 H108      -55.0162  -22.5734   15.6503 H         1 UNK         0.0831 
    109 H109      -55.1010  -22.9100   13.9263 H         1 UNK         0.0831 
    110 H110      -53.5836  -22.3904   14.6359 H         1 UNK         0.0831 
    111 H111      -53.2541  -23.7980   16.8932 H         1 UNK         0.3133 
    112 H112      -51.0458  -24.5176   17.8452 H         1 UNK         0.0566 
    113 H113      -53.0086  -26.6443   18.9234 H         1 UNK         0.0814 
    114 H114      -53.2081  -24.9028   19.0687 H         1 UNK         0.0814 
    115 H115      -51.9011  -25.7046   19.9208 H         1 UNK         0.0814 
    116 H116      -50.7943  -27.2898   17.0816 H         1 UNK         0.3091 
    117 H117      -47.3867  -27.2829   17.6721 H         1 UNK         0.0702 
    118 H118      -47.6341  -29.5708   18.6193 H         1 UNK         0.0785 
    119 H119      -49.3160  -29.2409   19.0400 H         1 UNK         0.0785 
    120 H120      -48.0164  -28.3641   19.8354 H         1 UNK         0.0785 
    121 H121      -49.1795  -29.2344   16.5596 H         1 UNK         0.2998 
    122 H122      -48.6640  -28.5499   13.4063 H         1 UNK         0.0697 
    123 H123      -50.9219  -29.5620   15.2432 H         1 UNK         0.0825 
    124 H124      -49.4392  -30.4339   14.8344 H         1 UNK         0.0825 
    125 H125      -50.6394  -30.1081   13.6018 H         1 UNK         0.0825 
    126 H126      -51.1151  -27.0718   14.2727 H         1 UNK         0.3029 
    127 H127      -52.4573  -26.2036   12.4951 H         1 UNK         0.0897 
    128 H128      -50.2059  -24.1047   12.2763 H         1 UNK         0.0792 
    129 H129      -50.9790  -24.5791   13.7824 H         1 UNK         0.0792 
    130 H130      -51.9108  -23.7535   12.5429 H         1 UNK         0.0792 
    131 H131      -50.7823  -25.9298   10.1281 H         1 UNK         0.3086 
    132 H132      -52.0524  -26.2898    8.1734 H         1 UNK         0.0583 
    133 H133      -54.5922  -26.0974    8.1044 H         1 UNK         0.1020 
    134 H134      -54.4230  -24.3942    7.8009 H         1 UNK         0.1020 
    135 H135      -55.2471  -27.5364    6.0439 H         1 UNK         0.0694 
    136 H136      -54.1370  -27.7386    4.7138 H         1 UNK         0.0694 
    137 H137      -52.1621  -23.5080    7.4637 H         1 UNK         0.2989 
    138 H138      -50.1817  -22.6599    6.6043 H         1 UNK         0.1055 
    139 H139      -49.1980  -22.0901    9.4617 H         1 UNK         0.0806 
    140 H140      -50.6740  -21.4774    8.7312 H         1 UNK         0.0806 
    141 H141      -49.1134  -20.9475    8.1225 H         1 UNK         0.0806 
    142 H142      -47.6757  -23.4711    8.0086 H         1 UNK         0.3061 
    143 H143      -46.5192  -25.3546    5.8112 H         1 UNK         0.0734 
    144 H144      -45.6030  -22.7213    4.5474 H         1 UNK         0.0832 
    145 H145      -44.6737  -24.2207    4.5381 H         1 UNK         0.0832 
    146 H146      -46.2181  -24.1348    3.7098 H         1 UNK         0.0832 
    147 H147      -45.4160  -24.8872    7.6340 H         1 UNK         0.3156 
    148 H148      -43.3461  -23.1102    8.6917 H         1 UNK         0.0589 
    149 H149      -43.9580  -21.6556   10.6475 H         1 UNK         0.0808 
    150 H150      -44.0415  -20.7854    9.1262 H         1 UNK         0.0808 
    151 H151      -45.5220  -21.3235    9.9039 H         1 UNK         0.0808 
    152 H152      -44.1009  -24.7332    9.9868 H         1 UNK         0.3098 
    153 H153      -45.2764  -26.0822   11.1491 H         1 UNK         0.0720 
    154 H154      -47.9000  -24.9668   12.2632 H         1 UNK         0.0791 
    155 H155      -46.3053  -24.6692   12.9427 H         1 UNK         0.0791 
    156 H156      -46.9601  -26.2994   12.9294 H         1 UNK         0.0791 
    157 H157      -47.9335  -26.8832   10.6858 H         1 UNK         0.3028 
@<TRIPOS>BOND
     1    1    2 1    
     2    1   82 1    
     3    1   83 1    
     4    1   84 1    
     5    2    3 2    
     6    2    4 am   BACKBONE|DICT|INTERRES
     7    4    5 1    
     8    4   85 1    
     9    5    6 1    
    10    5   80 1    
    11    5   86 1    
    12    6    7 1    
    13    6   87 1    
    14    6   88 1    
    15    7    8 1    
    16    8    9 1    
    17    8   89 1    
    18    8   90 1    
    19    9   10 ar   
    20    9   14 ar   
    21   10   11 ar   
    22   10   91 1    
    23   11   12 ar   
    24   11   58 1    
    25   12   13 ar   
    26   12   92 1    
    27   13   14 ar   
    28   13   15 1    
    29   14   93 1    
    30   15   16 1    
    31   15   94 1    
    32   15   95 1    
    33   16   17 1    
    34   17   18 1    
    35   17   96 1    
    36   17   97 1    
    37   18   19 1    
    38   18   22 1    
    39   18   98 1    
    40   19   20 am   BACKBONE|DICT|INTERRES
    41   19   21 2    
    42   20   99 1    
    43   20  100 1    
    44   22   23 am   BACKBONE|DICT|INTERRES
    45   22  101 1    
    46   23   24 2    
    47   23   25 1    
    48   25   26 1    
    49   25   27 1    
    50   25  102 1    
    51   26  103 1    
    52   26  104 1    
    53   26  105 1    
    54   27   28 am   BACKBONE|DICT|INTERRES
    55   27  106 1    
    56   28   29 2    
    57   28   30 1    
    58   30   31 1    
    59   30   32 1    
    60   30  107 1    
    61   31  108 1    
    62   31  109 1    
    63   31  110 1    
    64   32   33 am   BACKBONE|DICT|INTERRES
    65   32  111 1    
    66   33   34 2    
    67   33   35 1    
    68   35   36 1    
    69   35   37 1    
    70   35  112 1    
    71   36  113 1    
    72   36  114 1    
    73   36  115 1    
    74   37   38 am   BACKBONE|DICT|INTERRES
    75   37  116 1    
    76   38   39 2    
    77   38   40 1    
    78   40   41 1    
    79   40   42 1    
    80   40  117 1    
    81   41  118 1    
    82   41  119 1    
    83   41  120 1    
    84   42   43 am   BACKBONE|DICT|INTERRES
    85   42  121 1    
    86   43   44 2    
    87   43   45 1    
    88   45   46 1    
    89   45   47 1    
    90   45  122 1    
    91   46  123 1    
    92   46  124 1    
    93   46  125 1    
    94   47   48 am   BACKBONE|DICT|INTERRES
    95   47  126 1    
    96   48   49 2    
    97   48   50 1    
    98   50   51 1    
    99   50   52 1    
   100   50  127 1    
   101   51  128 1    
   102   51  129 1    
   103   51  130 1    
   104   52   53 am   BACKBONE|DICT|INTERRES
   105   52  131 1    
   106   53   54 2    
   107   53   55 1    
   108   55   56 1    
   109   55   59 1    
   110   55  132 1    
   111   56   57 1    
   112   56  133 1    
   113   56  134 1    
   114   57   58 1    
   115   58  135 1    
   116   58  136 1    
   117   59   60 am   BACKBONE|DICT|INTERRES
   118   59  137 1    
   119   60   61 2    
   120   60   62 1    
   121   62   63 1    
   122   62   64 1    
   123   62  138 1    
   124   63  139 1    
   125   63  140 1    
   126   63  141 1    
   127   64   65 am   BACKBONE|DICT|INTERRES
   128   64  142 1    
   129   65   66 2    
   130   65   67 1    
   131   67   68 1    
   132   67   69 1    
   133   67  143 1    
   134   68  144 1    
   135   68  145 1    
   136   68  146 1    
   137   69   70 am   BACKBONE|DICT|INTERRES
   138   69  147 1    
   139   70   71 2    
   140   70   72 1    
   141   72   73 1    
   142   72   74 1    
   143   72  148 1    
   144   73  149 1    
   145   73  150 1    
   146   73  151 1    
   147   74   75 am   BACKBONE|DICT|INTERRES
   148   74  152 1    
   149   75   76 2    
   150   75   77 1    
   151   77   78 1    
   152   77   79 1    
   153   77  153 1    
   154   78  154 1    
   155   78  155 1    
   156   78  156 1    
   157   79   80 am   BACKBONE|DICT|INTERRES
   158   79  157 1    
   159   80   81 2    
@<TRIPOS>SUBSTRUCTURE
     1 UNK         1 GROUP             0       ****    0 ROOT    
