@<TRIPOS>MOLECULE
3R207
157   159    1
SMALL
USER_CHARGES


@<TRIPOS>ATOM
      1 CA        -46.8722  -32.8889    4.1977 C.3       0 UNK        -0.1975 
      2 C         -47.3635  -31.5573    3.6496 C.2       0 UNK         0.4852 
      3 O         -47.2187  -31.2974    2.4546 O.2       0 UNK        -0.5216 
      4 N         -47.9391  -30.7098    4.5148 N.am      1 UNK        -0.4461 
      5 CA        -48.4722  -29.3845    4.1648 C.3       1 UNK         0.0864 
      6 C6        -49.5169  -28.9129    5.2115 C.3       14 UNK        -0.0898 
      7 S7        -50.8339  -27.8884    4.4690 S.3       14 UNK        -0.2598 
      8 C8        -50.8514  -26.4285    5.5664 C.3       14 UNK         0.0286 
      9 C9        -51.7856  -26.5385    6.7751 C.ar      14 UNK        -0.0844 
     10 C10       -52.3739  -25.3708    7.2733 C.ar      14 UNK        -0.0881 
     11 C11       -53.2557  -25.4173    8.3558 C.ar      14 UNK        -0.0643 
     12 C12       -53.5441  -26.6471    8.9491 C.ar      14 UNK        -0.0930 
     13 C13       -52.9598  -27.8270    8.4802 C.ar      14 UNK        -0.0827 
     14 C14       -52.0733  -27.7609    7.3999 C.ar      14 UNK        -0.1249 
     15 C15       -53.2426  -29.1708    9.1524 C.3       14 UNK         0.0141 
     16 S16       -54.9516  -29.3464    9.7701 S.3       14 UNK        -0.2313 
     17 C17       -54.7750  -30.7541   10.9207 C.3       14 UNK        -0.0915 
     18 CA        -54.6018  -30.3458   12.4127 C.3       13 UNK         0.0968 
     19 C         -53.1561  -29.8624   12.7445 C.2       13 UNK         0.5732 
     20 N         -52.9548  -28.7117   13.3757 N.am      13 UNK        -0.7310 
     21 O         -52.1922  -30.5525   12.4228 O.2       13 UNK        -0.5035 
     22 N         -55.6660  -29.4295   12.8498 N.am      13 UNK        -0.4233 
     23 C         -56.0923  -29.3004   14.1093 C.2       13 UNK         0.4989 
     24 O         -55.7655  -30.0488   15.0335 O.2       13 UNK        -0.4996 
     25 CA        -57.0416  -28.1207   14.3838 C.3       12 UNK         0.0216 
     26 CB        -58.4959  -28.6073   14.4913 C.3       12 UNK        -0.1964 
     27 N         -56.6737  -27.4039   15.6086 N.am      12 UNK        -0.4276 
     28 C         -55.4960  -26.7989   15.8137 C.2       12 UNK         0.5020 
     29 O         -54.6083  -26.7156   14.9589 O.2       12 UNK        -0.5489 
     30 CA        -55.2646  -26.2173   17.2143 C.3       11 UNK         0.0294 
     31 CB        -55.0955  -27.3505   18.2483 C.3       11 UNK        -0.2019 
     32 N         -54.0630  -25.3892   17.1806 N.am      11 UNK        -0.4493 
     33 C         -53.6457  -24.5460   18.1332 C.2       11 UNK         0.4932 
     34 O         -54.2970  -24.2819   19.1457 O.2       11 UNK        -0.5029 
     35 CA        -52.2541  -23.9147   17.9194 C.3       10 UNK         0.0280 
     36 CB        -51.6694  -23.2659   19.1921 C.3       10 UNK        -0.1976 
     37 N         -51.3129  -24.8704   17.3217 N.am      10 UNK        -0.4242 
     38 C         -50.8853  -26.0299   17.8469 C.2       10 UNK         0.5072 
     39 O         -51.1061  -26.3939   19.0027 O.2       10 UNK        -0.5224 
     40 CA        -50.1159  -26.9735   16.9079 C.3       9 UNK         0.0343 
     41 CB        -51.0970  -27.9523   16.2430 C.3       9 UNK        -0.2003 
     42 N         -49.3588  -26.2674   15.8714 N.am      9 UNK        -0.4272 
     43 C         -48.2036  -25.6228   16.0942 C.2       9 UNK         0.4988 
     44 O         -47.6380  -25.5865   17.1877 O.2       9 UNK        -0.5108 
     45 CA        -47.5750  -24.8855   14.8986 C.3       8 UNK         0.0248 
     46 CB        -46.8842  -25.8763   13.9483 C.3       8 UNK        -0.2001 
     47 N         -48.5496  -24.0776   14.1612 N.am      8 UNK        -0.4140 
     48 C         -49.1762  -23.0036   14.6654 C.2       8 UNK         0.5028 
     49 O         -48.9607  -22.5417   15.7861 O.2       8 UNK        -0.5428 
     50 CA        -50.2432  -22.3440   13.7807 C.3       7 UNK         0.0264 
     51 CB        -49.6151  -21.2915   12.8528 C.3       7 UNK        -0.1988 
     52 N         -50.9809  -23.3239   12.9844 N.am      7 UNK        -0.4454 
     53 C         -51.8943  -24.1700   13.4799 C.2       7 UNK         0.5027 
     54 O         -52.2096  -24.2149   14.6684 O.2       7 UNK        -0.5083 
     55 CA        -52.5489  -25.1462   12.4830 C.3       6 UNK         0.0844 
     56 C56       -53.6672  -24.4391   11.6737 C.3       14 UNK        -0.0967 
     57 S57       -53.0569  -23.4176   10.2790 S.3       14 UNK        -0.2604 
     58 C58       -53.9271  -24.1461    8.8560 C.3       14 UNK         0.0134 
     59 N         -51.5620  -25.8210   11.6349 N.am      6 UNK        -0.4116 
     60 C         -50.5514  -26.5832   12.0769 C.2       5 UNK         0.5034 
     61 O         -50.4158  -26.9286   13.2506 O.2       5 UNK        -0.5045 
     62 CA        -49.4668  -26.9753   11.0580 C.3       5 UNK         0.0224 
     63 CB        -49.6722  -28.4005   10.5282 C.3       5 UNK        -0.1978 
     64 N         -49.3397  -26.0486    9.9312 N.am      5 UNK        -0.4737 
     65 C         -49.0189  -24.7541   10.0308 C.2       4 UNK         0.5027 
     66 O         -48.7994  -24.1880   11.1034 O.2       4 UNK        -0.5211 
     67 CA        -48.9265  -23.9775    8.7068 C.3       4 UNK         0.0297 
     68 CB        -49.1835  -22.4728    8.9060 C.3       4 UNK        -0.1993 
     69 N         -47.6250  -24.1655    8.0633 N.am      4 UNK        -0.4486 
     70 C         -47.1898  -25.3067    7.5147 C.2       3 UNK         0.4961 
     71 O         -47.8492  -26.3491    7.4652 O.2       3 UNK        -0.5105 
     72 CA        -45.7754  -25.2828    6.9284 C.3       3 UNK         0.0299 
     73 CB        -44.7100  -25.3551    8.0372 C.3       3 UNK        -0.1972 
     74 N         -45.6412  -26.4311    6.0406 N.am      3 UNK        -0.4305 
     75 C         -44.8717  -26.5024    4.9509 C.2       2 UNK         0.5006 
     76 O         -44.1206  -25.5973    4.5843 O.2       2 UNK        -0.5106 
     77 CA        -44.9327  -27.8032    4.1293 C.3       2 UNK         0.0296 
     78 CB        -43.6883  -28.6655    4.4004 C.3       2 UNK        -0.2002 
     79 N         -46.1319  -28.6136    4.3704 N.am      2 UNK        -0.4032 
     80 C         -47.3620  -28.3332    3.9109 C.2       1 UNK         0.5000 
     81 O         -47.6275  -27.3079    3.2811 O.2       1 UNK        -0.5238 
     82 H82       -47.0631  -32.9868    5.2662 H         1 UNK         0.0889 
     83 H83       -45.7995  -32.9891    4.0342 H         1 UNK         0.0889 
     84 H84       -47.3728  -33.7115    3.6876 H         1 UNK         0.0889 
     85 H85       -48.0378  -30.9834    5.4827 H         1 UNK         0.3028 
     86 H86       -48.9899  -29.5084    3.2105 H         1 UNK         0.0864 
     87 H87       -50.0220  -29.7756    5.6487 H         1 UNK         0.0720 
     88 H88       -49.0425  -28.3975    6.0486 H         1 UNK         0.0720 
     89 H89       -51.1604  -25.5800    4.9540 H         1 UNK         0.0814 
     90 H90       -49.8414  -26.1980    5.8994 H         1 UNK         0.0814 
     91 H91       -52.1580  -24.4194    6.8060 H         1 UNK         0.1469 
     92 H92       -54.2336  -26.6900    9.7773 H         1 UNK         0.1381 
     93 H93       -51.6156  -28.6717    7.0441 H         1 UNK         0.1206 
     94 H94       -53.0390  -29.9921    8.4636 H         1 UNK         0.0813 
     95 H95       -52.5533  -29.2860    9.9863 H         1 UNK         0.0813 
     96 H96       -53.9628  -31.4037   10.5890 H         1 UNK         0.0638 
     97 H97       -55.6792  -31.3568   10.8244 H         1 UNK         0.0638 
     98 H98       -54.7146  -31.2653   12.9899 H         1 UNK         0.0568 
     99 H99       -53.7236  -28.1470   13.7150 H         1 UNK         0.3450 
    100 H100      -52.0070  -28.4097   13.5487 H         1 UNK         0.3450 
    101 H101      -55.9833  -28.7768   12.1481 H         1 UNK         0.2987 
    102 H102      -56.9739  -27.4109   13.5564 H         1 UNK         0.0766 
    103 H103      -59.1848  -27.7752   14.6380 H         1 UNK         0.0798 
    104 H104      -58.6282  -29.3046   15.3199 H         1 UNK         0.0798 
    105 H105      -58.8031  -29.1231   13.5803 H         1 UNK         0.0798 
    106 H106      -57.3314  -27.4533   16.3730 H         1 UNK         0.3198 
    107 H107      -56.1196  -25.5916   17.4783 H         1 UNK         0.0843 
    108 H108      -55.9731  -27.9969   18.2803 H         1 UNK         0.0831 
    109 H109      -54.9536  -26.9592   19.2556 H         1 UNK         0.0831 
    110 H110      -54.2360  -27.9796   18.0123 H         1 UNK         0.0831 
    111 H111      -53.5180  -25.4966   16.3303 H         1 UNK         0.3133 
    112 H112      -52.3892  -23.1219   17.1826 H         1 UNK         0.0566 
    113 H113      -50.6847  -22.8392   19.0011 H         1 UNK         0.0814 
    114 H114      -52.3102  -22.4573   19.5455 H         1 UNK         0.0814 
    115 H115      -51.5735  -23.9822   20.0083 H         1 UNK         0.0814 
    116 H116      -51.1266  -24.7053   16.3385 H         1 UNK         0.3091 
    117 H117      -49.4160  -27.5526   17.5141 H         1 UNK         0.0702 
    118 H118      -50.5788  -28.6579   15.5933 H         1 UNK         0.0785 
    119 H119      -51.8410  -27.4255   15.6439 H         1 UNK         0.0785 
    120 H120      -51.6372  -28.5346   16.9906 H         1 UNK         0.0785 
    121 H121      -49.7352  -26.3067   14.9274 H         1 UNK         0.2998 
    122 H122      -46.8140  -24.2046   15.2858 H         1 UNK         0.0697 
    123 H123      -47.5622  -26.6657   13.6263 H         1 UNK         0.0825 
    124 H124      -46.0427  -26.3612   14.4445 H         1 UNK         0.0825 
    125 H125      -46.4950  -25.3780   13.0599 H         1 UNK         0.0825 
    126 H126      -48.7477  -24.3394   13.2012 H         1 UNK         0.3029 
    127 H127      -50.9526  -21.8370   14.4390 H         1 UNK         0.0897 
    128 H128      -50.3727  -20.7928   12.2479 H         1 UNK         0.0792 
    129 H129      -49.1028  -20.5212   13.4307 H         1 UNK         0.0792 
    130 H130      -48.8818  -21.7312   12.1761 H         1 UNK         0.0792 
    131 H131      -50.7314  -23.3950   12.0065 H         1 UNK         0.3086 
    132 H132      -53.0237  -25.9233   13.0814 H         1 UNK         0.0583 
    133 H133      -54.3724  -25.1833   11.3103 H         1 UNK         0.1020 
    134 H134      -54.2706  -23.8025   12.3248 H         1 UNK         0.1020 
    135 H135      -54.9679  -24.3438    9.1170 H         1 UNK         0.0694 
    136 H136      -53.9571  -23.4048    8.0559 H         1 UNK         0.0694 
    137 H137      -51.5939  -25.5921   10.6517 H         1 UNK         0.2989 
    138 H138      -48.5171  -26.9581   11.5928 H         1 UNK         0.1055 
    139 H139      -49.9091  -29.0971   11.3343 H         1 UNK         0.0806 
    140 H140      -48.7714  -28.7683   10.0365 H         1 UNK         0.0806 
    141 H141      -50.4804  -28.4437    9.8024 H         1 UNK         0.0806 
    142 H142      -49.3989  -26.4450    9.0002 H         1 UNK         0.3061 
    143 H143      -49.7000  -24.3601    8.0378 H         1 UNK         0.0734 
    144 H144      -50.1476  -22.3033    9.3876 H         1 UNK         0.0832 
    145 H145      -48.4212  -22.0093    9.5336 H         1 UNK         0.0832 
    146 H146      -49.2023  -21.9434    7.9534 H         1 UNK         0.0832 
    147 H147      -46.9992  -23.3730    8.0837 H         1 UNK         0.3156 
    148 H148      -45.6554  -24.3599    6.3568 H         1 UNK         0.0589 
    149 H149      -44.8150  -26.2605    8.6365 H         1 UNK         0.0808 
    150 H150      -43.7029  -25.3459    7.6200 H         1 UNK         0.0808 
    151 H151      -44.7858  -24.5039    8.7148 H         1 UNK         0.0808 
    152 H152      -46.2870  -27.1833    6.2459 H         1 UNK         0.3098 
    153 H153      -44.9241  -27.5183    3.0750 H         1 UNK         0.0720 
    154 H154      -43.6730  -29.5518    3.7656 H         1 UNK         0.0791 
    155 H155      -43.6423  -28.9937    5.4396 H         1 UNK         0.0791 
    156 H156      -42.7737  -28.1074    4.1947 H         1 UNK         0.0791 
    157 H157      -46.0008  -29.4803    4.8711 H         1 UNK         0.3028 
@<TRIPOS>BOND
     1    1    2 1    
     2    1   82 1    
     3    1   83 1    
     4    1   84 1    
     5    2    3 2    
     6    2    4 am   BACKBONE|DICT|INTERRES
     7    4    5 1    
     8    4   85 1    
     9    5    6 1    
    10    5   80 1    
    11    5   86 1    
    12    6    7 1    
    13    6   87 1    
    14    6   88 1    
    15    7    8 1    
    16    8    9 1    
    17    8   89 1    
    18    8   90 1    
    19    9   10 ar   
    20    9   14 ar   
    21   10   11 ar   
    22   10   91 1    
    23   11   12 ar   
    24   11   58 1    
    25   12   13 ar   
    26   12   92 1    
    27   13   14 ar   
    28   13   15 1    
    29   14   93 1    
    30   15   16 1    
    31   15   94 1    
    32   15   95 1    
    33   16   17 1    
    34   17   18 1    
    35   17   96 1    
    36   17   97 1    
    37   18   19 1    
    38   18   22 1    
    39   18   98 1    
    40   19   20 am   BACKBONE|DICT|INTERRES
    41   19   21 2    
    42   20   99 1    
    43   20  100 1    
    44   22   23 am   BACKBONE|DICT|INTERRES
    45   22  101 1    
    46   23   24 2    
    47   23   25 1    
    48   25   26 1    
    49   25   27 1    
    50   25  102 1    
    51   26  103 1    
    52   26  104 1    
    53   26  105 1    
    54   27   28 am   BACKBONE|DICT|INTERRES
    55   27  106 1    
    56   28   29 2    
    57   28   30 1    
    58   30   31 1    
    59   30   32 1    
    60   30  107 1    
    61   31  108 1    
    62   31  109 1    
    63   31  110 1    
    64   32   33 am   BACKBONE|DICT|INTERRES
    65   32  111 1    
    66   33   34 2    
    67   33   35 1    
    68   35   36 1    
    69   35   37 1    
    70   35  112 1    
    71   36  113 1    
    72   36  114 1    
    73   36  115 1    
    74   37   38 am   BACKBONE|DICT|INTERRES
    75   37  116 1    
    76   38   39 2    
    77   38   40 1    
    78   40   41 1    
    79   40   42 1    
    80   40  117 1    
    81   41  118 1    
    82   41  119 1    
    83   41  120 1    
    84   42   43 am   BACKBONE|DICT|INTERRES
    85   42  121 1    
    86   43   44 2    
    87   43   45 1    
    88   45   46 1    
    89   45   47 1    
    90   45  122 1    
    91   46  123 1    
    92   46  124 1    
    93   46  125 1    
    94   47   48 am   BACKBONE|DICT|INTERRES
    95   47  126 1    
    96   48   49 2    
    97   48   50 1    
    98   50   51 1    
    99   50   52 1    
   100   50  127 1    
   101   51  128 1    
   102   51  129 1    
   103   51  130 1    
   104   52   53 am   BACKBONE|DICT|INTERRES
   105   52  131 1    
   106   53   54 2    
   107   53   55 1    
   108   55   56 1    
   109   55   59 1    
   110   55  132 1    
   111   56   57 1    
   112   56  133 1    
   113   56  134 1    
   114   57   58 1    
   115   58  135 1    
   116   58  136 1    
   117   59   60 am   BACKBONE|DICT|INTERRES
   118   59  137 1    
   119   60   61 2    
   120   60   62 1    
   121   62   63 1    
   122   62   64 1    
   123   62  138 1    
   124   63  139 1    
   125   63  140 1    
   126   63  141 1    
   127   64   65 am   BACKBONE|DICT|INTERRES
   128   64  142 1    
   129   65   66 2    
   130   65   67 1    
   131   67   68 1    
   132   67   69 1    
   133   67  143 1    
   134   68  144 1    
   135   68  145 1    
   136   68  146 1    
   137   69   70 am   BACKBONE|DICT|INTERRES
   138   69  147 1    
   139   70   71 2    
   140   70   72 1    
   141   72   73 1    
   142   72   74 1    
   143   72  148 1    
   144   73  149 1    
   145   73  150 1    
   146   73  151 1    
   147   74   75 am   BACKBONE|DICT|INTERRES
   148   74  152 1    
   149   75   76 2    
   150   75   77 1    
   151   77   78 1    
   152   77   79 1    
   153   77  153 1    
   154   78  154 1    
   155   78  155 1    
   156   78  156 1    
   157   79   80 am   BACKBONE|DICT|INTERRES
   158   79  157 1    
   159   80   81 2    
@<TRIPOS>SUBSTRUCTURE
     1 UNK         1 GROUP             0       ****    0 ROOT    
