@<TRIPOS>MOLECULE
3R207
157   159    1
SMALL
USER_CHARGES


@<TRIPOS>ATOM
      1 CA        -49.2639  -26.1369    3.6304 C.3       0 UNK        -0.1975 
      2 C         -48.8502  -27.5256    3.1453 C.2       0 UNK         0.4852 
      3 O         -48.8562  -27.7573    1.9379 O.2       0 UNK        -0.5216 
      4 N         -48.4840  -28.4827    4.0144 N.am      1 UNK        -0.4461 
      5 CA        -48.3771  -28.3946    5.4767 C.3       1 UNK         0.0864 
      6 C6        -48.0895  -29.7884    6.0922 C.3       14 UNK        -0.0898 
      7 S7        -48.1338  -29.8451    7.9209 S.3       14 UNK        -0.2598 
      8 C8        -49.6371  -30.8185    8.2615 C.3       14 UNK         0.0286 
      9 C9        -50.8731  -29.9452    8.4395 C.ar      14 UNK        -0.0844 
     10 C10       -51.4723  -29.3288    7.3378 C.ar      14 UNK        -0.0881 
     11 C11       -52.6200  -28.5468    7.4956 C.ar      14 UNK        -0.0643 
     12 C12       -53.2058  -28.4313    8.7599 C.ar      14 UNK        -0.0930 
     13 C13       -52.6208  -29.0465    9.8707 C.ar      14 UNK        -0.0827 
     14 C14       -51.4454  -29.7868    9.7060 C.ar      14 UNK        -0.1249 
     15 C15       -53.2839  -28.9660   11.2383 C.3       14 UNK         0.0141 
     16 S16       -53.0103  -27.3677   12.0693 S.3       14 UNK        -0.2313 
     17 C17       -54.5453  -26.4491   11.6938 C.3       14 UNK        -0.0915 
     18 CA        -55.7086  -26.6521   12.7049 C.3       13 UNK         0.0968 
     19 C         -56.4911  -27.9766   12.4558 C.2       13 UNK         0.5732 
     20 N         -56.5740  -28.9070   13.4004 N.am      13 UNK        -0.7310 
     21 O         -57.0443  -28.1609   11.3745 O.2       13 UNK        -0.5035 
     22 N         -55.2790  -26.4295   14.0927 N.am      13 UNK        -0.4233 
     23 C         -56.1043  -26.1765   15.1174 C.2       13 UNK         0.4989 
     24 O         -57.3086  -25.9508   14.9856 O.2       13 UNK        -0.4996 
     25 CA        -55.4741  -26.2047   16.5239 C.3       12 UNK         0.0216 
     26 CB        -56.5126  -26.3942   17.6494 C.3       12 UNK        -0.1964 
     27 N         -54.3965  -27.1946   16.6383 N.am      12 UNK        -0.4276 
     28 C         -54.4684  -28.5210   16.4490 C.2       12 UNK         0.5020 
     29 O         -55.5081  -29.1199   16.1725 O.2       12 UNK        -0.5489 
     30 CA        -53.1510  -29.3110   16.5310 C.3       11 UNK         0.0294 
     31 CB        -52.6248  -29.6133   15.1190 C.3       11 UNK        -0.2019 
     32 N         -52.1155  -28.5930   17.2783 N.am      11 UNK        -0.4493 
     33 C         -51.9261  -28.6933   18.6012 C.2       11 UNK         0.4932 
     34 O         -52.5620  -29.4534   19.3317 O.2       11 UNK        -0.5029 
     35 CA        -50.8467  -27.7844   19.2170 C.3       10 UNK         0.0280 
     36 CB        -49.4705  -28.4669   19.1585 C.3       10 UNK        -0.1976 
     37 N         -50.7679  -26.4703   18.5723 N.am      10 UNK        -0.4242 
     38 C         -51.7196  -25.5280   18.6445 C.2       10 UNK         0.5072 
     39 O         -52.7489  -25.6418   19.3099 O.2       10 UNK        -0.5224 
     40 CA        -51.5054  -24.2505   17.8128 C.3       9 UNK         0.0343 
     41 CB        -50.8304  -23.1628   18.6635 C.3       9 UNK        -0.2003 
     42 N         -50.7357  -24.4493   16.5787 N.am      9 UNK        -0.4272 
     43 C         -51.1064  -25.2352   15.5594 C.2       9 UNK         0.4988 
     44 O         -52.1089  -25.9513   15.5704 O.2       9 UNK        -0.5108 
     45 CA        -50.1980  -25.2429   14.3242 C.3       8 UNK         0.0248 
     46 CB        -49.6695  -26.6599   14.0465 C.3       8 UNK        -0.2001 
     47 N         -50.9268  -24.7383   13.1592 N.am      8 UNK        -0.4140 
     48 C         -51.2261  -23.4443   12.9691 C.2       8 UNK         0.5028 
     49 O         -50.8632  -22.5488   13.7351 O.2       8 UNK        -0.5428 
     50 CA        -52.0593  -23.0872   11.7257 C.3       7 UNK         0.0264 
     51 CB        -51.9354  -21.6012   11.3290 C.3       7 UNK        -0.1988 
     52 N         -51.6986  -23.9305   10.5859 N.am      7 UNK        -0.4454 
     53 C         -52.5298  -24.2552    9.5828 C.2       7 UNK         0.5027 
     54 O         -53.7109  -23.9044    9.5480 O.2       7 UNK        -0.5083 
     55 CA        -51.9504  -25.1070    8.4265 C.3       6 UNK         0.0844 
     56 C56       -52.8752  -25.1513    7.1801 C.3       14 UNK        -0.0967 
     57 S57       -52.2965  -26.3123    5.8942 S.3       14 UNK        -0.2604 
     58 C58       -53.2213  -27.8313    6.2953 C.3       14 UNK         0.0134 
     59 N         -50.5579  -24.7699    8.1216 N.am      6 UNK        -0.4116 
     60 C         -50.0410  -23.5654    7.8361 C.2       5 UNK         0.5034 
     61 O         -50.7159  -22.5674    7.5803 O.2       5 UNK        -0.5045 
     62 CA        -48.5001  -23.4587    7.9043 C.3       5 UNK         0.0224 
     63 CB        -48.0281  -22.0834    8.4206 C.3       5 UNK        -0.1978 
     64 N         -47.8840  -24.5494    8.6803 N.am      5 UNK        -0.4737 
     65 C         -48.0972  -24.8614    9.9686 C.2       4 UNK         0.5027 
     66 O         -48.7624  -24.1691   10.7374 O.2       4 UNK        -0.5211 
     67 CA        -47.6012  -26.2309   10.4526 C.3       4 UNK         0.0297 
     68 CB        -48.7743  -27.2291   10.4266 C.3       4 UNK        -0.1993 
     69 N         -46.5153  -26.7666    9.6275 N.am      4 UNK        -0.4486 
     70 C         -45.2265  -26.8055    9.9920 C.2       3 UNK         0.4961 
     71 O         -44.8016  -26.3615   11.0593 O.2       3 UNK        -0.5105 
     72 CA        -44.2351  -27.4697    9.0169 C.3       3 UNK         0.0299 
     73 CB        -44.0686  -28.9584    9.3627 C.3       3 UNK        -0.1972 
     74 N         -44.6251  -27.3469    7.6110 N.am      3 UNK        -0.4305 
     75 C         -44.5856  -26.2083    6.9043 C.2       2 UNK         0.5006 
     76 O         -44.1465  -25.1453    7.3435 O.2       2 UNK        -0.5106 
     77 CA        -45.1526  -26.2492    5.4706 C.3       2 UNK         0.0296 
     78 CB        -44.0207  -26.4601    4.4521 C.3       2 UNK        -0.2002 
     79 N         -46.2026  -27.2519    5.2409 N.am      2 UNK        -0.4032 
     80 C         -47.3478  -27.3442    5.9336 C.2       1 UNK         0.5000 
     81 O         -47.6220  -26.6243    6.8918 O.2       1 UNK        -0.5238 
     82 H82       -50.0425  -25.7324    2.9841 H         1 UNK         0.0889 
     83 H83       -48.4121  -25.4583    3.5945 H         1 UNK         0.0889 
     84 H84       -49.6586  -26.1384    4.6437 H         1 UNK         0.0889 
     85 H85       -48.2346  -29.3820    3.6275 H         1 UNK         0.3028 
     86 H86       -49.3455  -28.0602    5.8498 H         1 UNK         0.0864 
     87 H87       -48.8039  -30.5131    5.6998 H         1 UNK         0.0720 
     88 H88       -47.1095  -30.1486    5.7735 H         1 UNK         0.0720 
     89 H89       -49.4602  -31.4001    9.1674 H         1 UNK         0.0814 
     90 H90       -49.8092  -31.5516    7.4726 H         1 UNK         0.0814 
     91 H91       -51.0457  -29.4545    6.3537 H         1 UNK         0.1469 
     92 H92       -54.1124  -27.8557    8.8787 H         1 UNK         0.1381 
     93 H93       -50.9926  -30.2679   10.5623 H         1 UNK         0.1206 
     94 H94       -52.8959  -29.7528   11.8868 H         1 UNK         0.0813 
     95 H95       -54.3479  -29.1723   11.1333 H         1 UNK         0.0813 
     96 H96       -54.8647  -26.6548   10.6719 H         1 UNK         0.0638 
     97 H97       -54.2802  -25.3930   11.7018 H         1 UNK         0.0638 
     98 H98       -56.4356  -25.8682   12.4841 H         1 UNK         0.0568 
     99 H99       -57.0933  -29.7478   13.2071 H         1 UNK         0.3450 
    100 H100      -56.1510  -28.7834   14.3139 H         1 UNK         0.3450 
    101 H101      -54.3008  -26.5970   14.2843 H         1 UNK         0.2987 
    102 H102      -55.0056  -25.2296   16.6652 H         1 UNK         0.0766 
    103 H103      -57.2440  -25.5851   17.6487 H         1 UNK         0.0798 
    104 H104      -56.0354  -26.3973   18.6295 H         1 UNK         0.0798 
    105 H105      -57.0619  -27.3299   17.5401 H         1 UNK         0.0798 
    106 H106      -53.4672  -26.7971   16.7262 H         1 UNK         0.3198 
    107 H107      -53.3693  -30.2615   17.0230 H         1 UNK         0.0843 
    108 H108      -52.3482  -28.7010   14.5919 H         1 UNK         0.0831 
    109 H109      -53.3795  -30.1229   14.5181 H         1 UNK         0.0831 
    110 H110      -51.7472  -30.2590   15.1527 H         1 UNK         0.0831 
    111 H111      -51.5637  -27.9248   16.7582 H         1 UNK         0.3133 
    112 H112      -51.1040  -27.6288   20.2670 H         1 UNK         0.0566 
    113 H113      -48.7095  -27.8708   19.6625 H         1 UNK         0.0814 
    114 H114      -49.1425  -28.6336   18.1316 H         1 UNK         0.0814 
    115 H115      -49.4971  -29.4390   19.6531 H         1 UNK         0.0814 
    116 H116      -49.9466  -26.2772   18.0177 H         1 UNK         0.3091 
    117 H117      -52.4939  -23.8885   17.5219 H         1 UNK         0.0702 
    118 H118      -50.7686  -22.2176   18.1235 H         1 UNK         0.0785 
    119 H119      -49.8202  -23.4488   18.9590 H         1 UNK         0.0785 
    120 H120      -51.3963  -22.9742   19.5772 H         1 UNK         0.0785 
    121 H121      -49.9043  -23.8852   16.4724 H         1 UNK         0.2998 
    122 H122      -49.3379  -24.5949   14.5069 H         1 UNK         0.0697 
    123 H123      -48.9105  -26.6487   13.2664 H         1 UNK         0.0825 
    124 H124      -50.4626  -27.3408   13.7376 H         1 UNK         0.0825 
    125 H125      -49.2027  -27.0861   14.9355 H         1 UNK         0.0825 
    126 H126      -51.3146  -25.4274   12.5307 H         1 UNK         0.3029 
    127 H127      -53.0983  -23.2806   11.9996 H         1 UNK         0.0897 
    128 H128      -50.9086  -21.3457   11.0640 H         1 UNK         0.0792 
    129 H129      -52.2383  -20.9462   12.1469 H         1 UNK         0.0792 
    130 H130      -52.5698  -21.3615   10.4755 H         1 UNK         0.0792 
    131 H131      -50.7174  -24.1982   10.5429 H         1 UNK         0.3086 
    132 H132      -51.9007  -26.1139    8.8367 H         1 UNK         0.0583 
    133 H133      -53.8927  -25.4282    7.4618 H         1 UNK         0.1020 
    134 H134      -52.9491  -24.1575    6.7351 H         1 UNK         0.1020 
    135 H135      -54.2729  -27.5951    6.4648 H         1 UNK         0.0694 
    136 H136      -53.1957  -28.4950    5.4298 H         1 UNK         0.0694 
    137 H137      -49.8972  -25.5211    8.2541 H         1 UNK         0.2989 
    138 H138      -48.1446  -23.5735    6.8790 H         1 UNK         0.1055 
    139 H139      -48.4203  -21.8671    9.4149 H         1 UNK         0.0806 
    140 H140      -48.3611  -21.2819    7.7602 H         1 UNK         0.0806 
    141 H141      -46.9406  -22.0308    8.4695 H         1 UNK         0.0806 
    142 H142      -47.4233  -25.2532    8.1080 H         1 UNK         0.3061 
    143 H143      -47.2735  -26.1123   11.4874 H         1 UNK         0.0734 
    144 H144      -49.1298  -27.4127    9.4120 H         1 UNK         0.0832 
    145 H145      -48.4866  -28.1898   10.8537 H         1 UNK         0.0832 
    146 H146      -49.6265  -26.8634   11.0005 H         1 UNK         0.0832 
    147 H147      -46.7760  -27.1163    8.7124 H         1 UNK         0.3156 
    148 H148      -43.2670  -26.9806    9.1451 H         1 UNK         0.0589 
    149 H149      -45.0024  -29.5093    9.2393 H         1 UNK         0.0808 
    150 H150      -43.7512  -29.0848   10.3988 H         1 UNK         0.0808 
    151 H151      -43.3130  -29.4309    8.7347 H         1 UNK         0.0808 
    152 H152      -44.9876  -28.1762    7.1640 H         1 UNK         0.3098 
    153 H153      -45.6005  -25.2714    5.2812 H         1 UNK         0.0720 
    154 H154      -43.5565  -27.4411    4.5617 H         1 UNK         0.0791 
    155 H155      -43.2361  -25.7125    4.5787 H         1 UNK         0.0791 
    156 H156      -44.3850  -26.3720    3.4283 H         1 UNK         0.0791 
    157 H157      -46.0639  -27.8812    4.4630 H         1 UNK         0.3028 
@<TRIPOS>BOND
     1    1    2 1    
     2    1   82 1    
     3    1   83 1    
     4    1   84 1    
     5    2    3 2    
     6    2    4 am   BACKBONE|DICT|INTERRES
     7    4    5 1    
     8    4   85 1    
     9    5    6 1    
    10    5   80 1    
    11    5   86 1    
    12    6    7 1    
    13    6   87 1    
    14    6   88 1    
    15    7    8 1    
    16    8    9 1    
    17    8   89 1    
    18    8   90 1    
    19    9   10 ar   
    20    9   14 ar   
    21   10   11 ar   
    22   10   91 1    
    23   11   12 ar   
    24   11   58 1    
    25   12   13 ar   
    26   12   92 1    
    27   13   14 ar   
    28   13   15 1    
    29   14   93 1    
    30   15   16 1    
    31   15   94 1    
    32   15   95 1    
    33   16   17 1    
    34   17   18 1    
    35   17   96 1    
    36   17   97 1    
    37   18   19 1    
    38   18   22 1    
    39   18   98 1    
    40   19   20 am   BACKBONE|DICT|INTERRES
    41   19   21 2    
    42   20   99 1    
    43   20  100 1    
    44   22   23 am   BACKBONE|DICT|INTERRES
    45   22  101 1    
    46   23   24 2    
    47   23   25 1    
    48   25   26 1    
    49   25   27 1    
    50   25  102 1    
    51   26  103 1    
    52   26  104 1    
    53   26  105 1    
    54   27   28 am   BACKBONE|DICT|INTERRES
    55   27  106 1    
    56   28   29 2    
    57   28   30 1    
    58   30   31 1    
    59   30   32 1    
    60   30  107 1    
    61   31  108 1    
    62   31  109 1    
    63   31  110 1    
    64   32   33 am   BACKBONE|DICT|INTERRES
    65   32  111 1    
    66   33   34 2    
    67   33   35 1    
    68   35   36 1    
    69   35   37 1    
    70   35  112 1    
    71   36  113 1    
    72   36  114 1    
    73   36  115 1    
    74   37   38 am   BACKBONE|DICT|INTERRES
    75   37  116 1    
    76   38   39 2    
    77   38   40 1    
    78   40   41 1    
    79   40   42 1    
    80   40  117 1    
    81   41  118 1    
    82   41  119 1    
    83   41  120 1    
    84   42   43 am   BACKBONE|DICT|INTERRES
    85   42  121 1    
    86   43   44 2    
    87   43   45 1    
    88   45   46 1    
    89   45   47 1    
    90   45  122 1    
    91   46  123 1    
    92   46  124 1    
    93   46  125 1    
    94   47   48 am   BACKBONE|DICT|INTERRES
    95   47  126 1    
    96   48   49 2    
    97   48   50 1    
    98   50   51 1    
    99   50   52 1    
   100   50  127 1    
   101   51  128 1    
   102   51  129 1    
   103   51  130 1    
   104   52   53 am   BACKBONE|DICT|INTERRES
   105   52  131 1    
   106   53   54 2    
   107   53   55 1    
   108   55   56 1    
   109   55   59 1    
   110   55  132 1    
   111   56   57 1    
   112   56  133 1    
   113   56  134 1    
   114   57   58 1    
   115   58  135 1    
   116   58  136 1    
   117   59   60 am   BACKBONE|DICT|INTERRES
   118   59  137 1    
   119   60   61 2    
   120   60   62 1    
   121   62   63 1    
   122   62   64 1    
   123   62  138 1    
   124   63  139 1    
   125   63  140 1    
   126   63  141 1    
   127   64   65 am   BACKBONE|DICT|INTERRES
   128   64  142 1    
   129   65   66 2    
   130   65   67 1    
   131   67   68 1    
   132   67   69 1    
   133   67  143 1    
   134   68  144 1    
   135   68  145 1    
   136   68  146 1    
   137   69   70 am   BACKBONE|DICT|INTERRES
   138   69  147 1    
   139   70   71 2    
   140   70   72 1    
   141   72   73 1    
   142   72   74 1    
   143   72  148 1    
   144   73  149 1    
   145   73  150 1    
   146   73  151 1    
   147   74   75 am   BACKBONE|DICT|INTERRES
   148   74  152 1    
   149   75   76 2    
   150   75   77 1    
   151   77   78 1    
   152   77   79 1    
   153   77  153 1    
   154   78  154 1    
   155   78  155 1    
   156   78  156 1    
   157   79   80 am   BACKBONE|DICT|INTERRES
   158   79  157 1    
   159   80   81 2    
@<TRIPOS>SUBSTRUCTURE
     1 UNK         1 GROUP             0       ****    0 ROOT    
