@<TRIPOS>MOLECULE
3R207
157   159    1
SMALL
USER_CHARGES


@<TRIPOS>ATOM
      1 CA        -44.7505  -28.5092    7.3000 C.3       0 UNK        -0.1975 
      2 C         -45.9309  -28.0051    6.4840 C.2       0 UNK         0.4852 
      3 O         -45.8202  -26.9890    5.7959 O.2       0 UNK        -0.5216 
      4 N         -47.0553  -28.7291    6.5588 N.am      1 UNK        -0.4461 
      5 CA        -48.3170  -28.4506    5.8660 C.3       1 UNK         0.0864 
      6 C6        -49.3275  -29.6002    6.1266 C.3       14 UNK        -0.0898 
      7 S7        -50.9004  -29.4475    5.2072 S.3       14 UNK        -0.2598 
      8 C8        -52.1033  -30.1994    6.3546 C.3       14 UNK         0.0286 
      9 C9        -52.1850  -29.4992    7.7078 C.ar      14 UNK        -0.0844 
     10 C10       -52.6206  -28.1735    7.8052 C.ar      14 UNK        -0.0881 
     11 C11       -52.7267  -27.5484    9.0533 C.ar      14 UNK        -0.0643 
     12 C12       -52.4077  -28.2660   10.2105 C.ar      14 UNK        -0.0930 
     13 C13       -51.9739  -29.5912   10.1273 C.ar      14 UNK        -0.0827 
     14 C14       -51.8561  -30.1976    8.8734 C.ar      14 UNK        -0.1249 
     15 C15       -51.6161  -30.3702   11.3845 C.3       14 UNK         0.0141 
     16 S16       -52.8139  -31.7051   11.7074 S.3       14 UNK        -0.2313 
     17 C17       -53.6442  -31.1750   13.2416 C.3       14 UNK        -0.0915 
     18 CA        -55.1070  -30.7273   12.9971 C.3       13 UNK         0.0968 
     19 C         -55.9063  -30.7039   14.3284 C.2       13 UNK         0.5732 
     20 N         -56.5097  -31.8219   14.7081 N.am      13 UNK        -0.7310 
     21 O         -55.9514  -29.7004   15.0369 O.2       13 UNK        -0.5035 
     22 N         -55.1614  -29.4330   12.3074 N.am      13 UNK        -0.4233 
     23 C         -56.2492  -28.9330   11.7135 C.2       13 UNK         0.4989 
     24 O         -57.3053  -29.5534   11.5742 O.2       13 UNK        -0.4996 
     25 CA        -56.1409  -27.4754   11.2312 C.3       12 UNK         0.0216 
     26 CB        -57.2591  -27.0882   10.2459 C.3       12 UNK        -0.1964 
     27 N         -56.1584  -26.5504   12.3674 N.am      12 UNK        -0.4276 
     28 C         -55.1213  -26.3153   13.1803 C.2       12 UNK         0.5020 
     29 O         -53.9953  -26.7905   13.0050 O.2       12 UNK        -0.5489 
     30 CA        -55.3966  -25.4346   14.4062 C.3       11 UNK         0.0294 
     31 CB        -56.2606  -26.1968   15.4330 C.3       11 UNK        -0.2019 
     32 N         -54.1143  -25.0630   14.9965 N.am      11 UNK        -0.4493 
     33 C         -53.9005  -24.1934   15.9918 C.2       11 UNK         0.4932 
     34 O         -54.7945  -23.5256   16.5146 O.2       11 UNK        -0.5029 
     35 CA        -52.4441  -24.0284   16.4765 C.3       10 UNK         0.0280 
     36 CB        -52.3425  -23.6291   17.9642 C.3       10 UNK        -0.1976 
     37 N         -51.5990  -25.1899   16.1703 N.am      10 UNK        -0.4242 
     38 C         -51.6947  -26.4324   16.6671 C.2       10 UNK         0.5072 
     39 O         -52.4761  -26.7632   17.5597 O.2       10 UNK        -0.5224 
     40 CA        -50.7860  -27.5053   16.0423 C.3       9 UNK         0.0343 
     41 CB        -51.5455  -28.2773   14.9535 C.3       9 UNK        -0.2003 
     42 N         -49.5448  -26.9706   15.4754 N.am      9 UNK        -0.4272 
     43 C         -48.4916  -26.5864   16.2106 C.2       9 UNK         0.4988 
     44 O         -48.4553  -26.6470   17.4404 O.2       9 UNK        -0.5108 
     45 CA        -47.2679  -26.0489   15.4499 C.3       8 UNK         0.0248 
     46 CB        -46.4788  -27.2002   14.8054 C.3       8 UNK        -0.2001 
     47 N         -47.6165  -25.0533   14.4339 N.am      8 UNK        -0.4140 
     48 C         -48.1222  -23.8403   14.7032 C.2       8 UNK         0.5028 
     49 O         -48.3170  -23.4136   15.8417 O.2       8 UNK        -0.5428 
     50 CA        -48.4918  -22.9537   13.5018 C.3       7 UNK         0.0264 
     51 CB        -47.2498  -22.2366   12.9490 C.3       7 UNK        -0.1988 
     52 N         -49.1528  -23.6925   12.4246 N.am      7 UNK        -0.4454 
     53 C         -50.3395  -24.3079   12.5381 C.2       7 UNK         0.5027 
     54 O         -51.0270  -24.2890   13.5567 O.2       7 UNK        -0.5083 
     55 CA        -50.8231  -25.1120   11.3196 C.3       6 UNK         0.0844 
     56 C56       -51.4522  -24.1618   10.2707 C.3       14 UNK        -0.0967 
     57 S57       -51.8791  -24.9470    8.6843 S.3       14 UNK        -0.2604 
     58 C58       -53.2013  -26.1047    9.1442 C.3       14 UNK         0.0134 
     59 N         -49.7524  -25.9568   10.7859 N.am      6 UNK        -0.4116 
     60 C         -49.1532  -26.9491   11.4605 C.2       5 UNK         0.5034 
     61 O         -49.4748  -27.3108   12.5923 O.2       5 UNK        -0.5045 
     62 CA        -47.9422  -27.6053   10.7842 C.3       5 UNK         0.0224 
     63 CB        -48.3794  -28.7592    9.8729 C.3       5 UNK        -0.1978 
     64 N         -47.1399  -26.6252   10.0421 N.am      5 UNK        -0.4737 
     65 C         -46.3723  -25.7141   10.6604 C.2       4 UNK         0.5027 
     66 O         -46.2625  -25.6418   11.8842 O.2       4 UNK        -0.5211 
     67 CA        -45.6266  -24.6888    9.7933 C.3       4 UNK         0.0297 
     68 CB        -44.2723  -25.2413    9.3259 C.3       4 UNK        -0.1993 
     69 N         -46.3880  -24.2051    8.6411 N.am      4 UNK        -0.4486 
     70 C         -47.5071  -23.4739    8.7249 C.2       3 UNK         0.4961 
     71 O         -48.1001  -23.2419    9.7782 O.2       3 UNK        -0.5105 
     72 CA        -48.0612  -22.9267    7.4076 C.3       3 UNK         0.0299 
     73 CB        -46.9639  -22.3422    6.4915 C.3       3 UNK        -0.1972 
     74 N         -48.7816  -24.0073    6.7537 N.am      3 UNK        -0.4305 
     75 C         -49.6346  -23.9106    5.7342 C.2       2 UNK         0.5006 
     76 O         -49.8769  -22.8524    5.1501 O.2       2 UNK        -0.5106 
     77 CA        -50.3507  -25.2115    5.3045 C.3       2 UNK         0.0296 
     78 CB        -51.0934  -25.0576    3.9634 C.3       2 UNK        -0.2002 
     79 N         -49.5129  -26.4150    5.2344 N.am      2 UNK        -0.4032 
     80 C         -48.9002  -27.0666    6.2356 C.2       1 UNK         0.5000 
     81 O         -48.8054  -26.6442    7.3936 O.2       1 UNK        -0.5238 
     82 H82       -44.5505  -29.5609    7.0793 H         1 UNK         0.0889 
     83 H83       -44.9565  -28.4121    8.3685 H         1 UNK         0.0889 
     84 H84       -43.8471  -27.9394    7.0683 H         1 UNK         0.0889 
     85 H85       -47.0631  -29.5483    7.1488 H         1 UNK         0.3028 
     86 H86       -48.0841  -28.4414    4.7990 H         1 UNK         0.0864 
     87 H87       -48.8813  -30.5547    5.8431 H         1 UNK         0.0720 
     88 H88       -49.5351  -29.6767    7.1937 H         1 UNK         0.0720 
     89 H89       -51.8514  -31.2538    6.4794 H         1 UNK         0.0814 
     90 H90       -53.0895  -30.1780    5.8891 H         1 UNK         0.0814 
     91 H91       -52.8720  -27.6253    6.9076 H         1 UNK         0.1469 
     92 H92       -52.4927  -27.7941   11.1781 H         1 UNK         0.1381 
     93 H93       -51.5216  -31.2242    8.8109 H         1 UNK         0.1206 
     94 H94       -50.6323  -30.8216   11.2559 H         1 UNK         0.0813 
     95 H95       -51.5287  -29.7020   12.2414 H         1 UNK         0.0813 
     96 H96       -53.0752  -30.3906   13.7394 H         1 UNK         0.0638 
     97 H97       -53.6152  -32.0342   13.9145 H         1 UNK         0.0638 
     98 H98       -55.5835  -31.4644   12.3472 H         1 UNK         0.0568 
     99 H99       -57.0204  -31.8299   15.5770 H         1 UNK         0.3450 
    100 H100      -56.4694  -32.6557   14.1428 H         1 UNK         0.3450 
    101 H101      -54.3833  -28.8045   12.4657 H         1 UNK         0.2987 
    102 H102      -55.1924  -27.3823   10.7043 H         1 UNK         0.0766 
    103 H103      -57.1166  -26.0773    9.8634 H         1 UNK         0.0798 
    104 H104      -58.2454  -27.1364   10.7091 H         1 UNK         0.0798 
    105 H105      -57.2690  -27.7596    9.3862 H         1 UNK         0.0798 
    106 H106      -57.0548  -26.1470   12.6000 H         1 UNK         0.3198 
    107 H107      -55.9114  -24.5292   14.0791 H         1 UNK         0.0843 
    108 H108      -55.7352  -27.0694   15.8234 H         1 UNK         0.0831 
    109 H109      -57.1926  -26.5504   14.9909 H         1 UNK         0.0831 
    110 H110      -56.5319  -25.5668   16.2797 H         1 UNK         0.0831 
    111 H111      -53.3257  -25.5402   14.5732 H         1 UNK         0.3133 
    112 H112      -52.0300  -23.2046   15.8937 H         1 UNK         0.0566 
    113 H113      -51.3032  -23.5280   18.2768 H         1 UNK         0.0814 
    114 H114      -52.8289  -22.6698   18.1446 H         1 UNK         0.0814 
    115 H115      -52.8211  -24.3606   18.6156 H         1 UNK         0.0814 
    116 H116      -50.9757  -25.0452   15.3815 H         1 UNK         0.3091 
    117 H117      -50.5274  -28.2117   16.8341 H         1 UNK         0.0702 
    118 H118      -50.9704  -29.1364   14.6085 H         1 UNK         0.0785 
    119 H119      -51.7566  -27.6480   14.0886 H         1 UNK         0.0785 
    120 H120      -52.5002  -28.6495   15.3283 H         1 UNK         0.0785 
    121 H121      -49.4833  -26.9365   14.4600 H         1 UNK         0.2998 
    122 H122      -46.6149  -25.5620   16.1773 H         1 UNK         0.0697 
    123 H123      -47.0631  -27.7137   14.0416 H         1 UNK         0.0825 
    124 H124      -46.1914  -27.9426   15.5512 H         1 UNK         0.0825 
    125 H125      -45.5625  -26.8393   14.3379 H         1 UNK         0.0825 
    126 H126      -47.4159  -25.2965   13.4679 H         1 UNK         0.3029 
    127 H127      -49.1927  -22.1952   13.8570 H         1 UNK         0.0897 
    128 H128      -47.5134  -21.5523   12.1422 H         1 UNK         0.0792 
    129 H129      -46.7599  -21.6491   13.7266 H         1 UNK         0.0792 
    130 H130      -46.5151  -22.9424   12.5608 H         1 UNK         0.0792 
    131 H131      -48.6799  -23.7080   11.5231 H         1 UNK         0.3086 
    132 H132      -51.6074  -25.7793   11.6782 H         1 UNK         0.0583 
    133 H133      -52.3518  -23.6954   10.6774 H         1 UNK         0.1020 
    134 H134      -50.7725  -23.3398   10.0378 H         1 UNK         0.1020 
    135 H135      -53.5627  -25.8724   10.1465 H         1 UNK         0.0694 
    136 H136      -54.0487  -25.9584    8.4729 H         1 UNK         0.0694 
    137 H137      -49.4363  -25.7460    9.8501 H         1 UNK         0.2989 
    138 H138      -47.3138  -28.0289   11.5710 H         1 UNK         0.1055 
    139 H139      -48.8053  -29.5691   10.4637 H         1 UNK         0.0806 
    140 H140      -47.5380  -29.1749    9.3212 H         1 UNK         0.0806 
    141 H141      -49.1447  -28.4484    9.1623 H         1 UNK         0.0806 
    142 H142      -47.2570  -26.5930    9.0366 H         1 UNK         0.3061 
    143 H143      -45.4253  -23.8253   10.4311 H         1 UNK         0.0734 
    144 H144      -43.6638  -24.4610    8.8683 H         1 UNK         0.0832 
    145 H145      -43.7018  -25.6442   10.1643 H         1 UNK         0.0832 
    146 H146      -44.3926  -26.0402    8.5967 H         1 UNK         0.0832 
    147 H147      -45.9912  -24.3739    7.7277 H         1 UNK         0.3156 
    148 H148      -48.7709  -22.1343    7.6539 H         1 UNK         0.0589 
    149 H149      -46.3185  -23.1157    6.0743 H         1 UNK         0.0808 
    150 H150      -47.3996  -21.7952    5.6554 H         1 UNK         0.0808 
    151 H151      -46.3317  -21.6393    7.0358 H         1 UNK         0.0808 
    152 H152      -48.6859  -24.9327    7.1752 H         1 UNK         0.3098 
    153 H153      -51.1097  -25.4096    6.0593 H         1 UNK         0.0720 
    154 H154      -50.4035  -24.8557    3.1431 H         1 UNK         0.0791 
    155 H155      -51.8081  -24.2343    4.0006 H         1 UNK         0.0791 
    156 H156      -51.6587  -25.9566    3.7161 H         1 UNK         0.0791 
    157 H157      -49.4944  -26.8583    4.3276 H         1 UNK         0.3028 
@<TRIPOS>BOND
     1    1    2 1    
     2    1   82 1    
     3    1   83 1    
     4    1   84 1    
     5    2    3 2    
     6    2    4 am   BACKBONE|DICT|INTERRES
     7    4    5 1    
     8    4   85 1    
     9    5    6 1    
    10    5   80 1    
    11    5   86 1    
    12    6    7 1    
    13    6   87 1    
    14    6   88 1    
    15    7    8 1    
    16    8    9 1    
    17    8   89 1    
    18    8   90 1    
    19    9   10 ar   
    20    9   14 ar   
    21   10   11 ar   
    22   10   91 1    
    23   11   12 ar   
    24   11   58 1    
    25   12   13 ar   
    26   12   92 1    
    27   13   14 ar   
    28   13   15 1    
    29   14   93 1    
    30   15   16 1    
    31   15   94 1    
    32   15   95 1    
    33   16   17 1    
    34   17   18 1    
    35   17   96 1    
    36   17   97 1    
    37   18   19 1    
    38   18   22 1    
    39   18   98 1    
    40   19   20 am   BACKBONE|DICT|INTERRES
    41   19   21 2    
    42   20   99 1    
    43   20  100 1    
    44   22   23 am   BACKBONE|DICT|INTERRES
    45   22  101 1    
    46   23   24 2    
    47   23   25 1    
    48   25   26 1    
    49   25   27 1    
    50   25  102 1    
    51   26  103 1    
    52   26  104 1    
    53   26  105 1    
    54   27   28 am   BACKBONE|DICT|INTERRES
    55   27  106 1    
    56   28   29 2    
    57   28   30 1    
    58   30   31 1    
    59   30   32 1    
    60   30  107 1    
    61   31  108 1    
    62   31  109 1    
    63   31  110 1    
    64   32   33 am   BACKBONE|DICT|INTERRES
    65   32  111 1    
    66   33   34 2    
    67   33   35 1    
    68   35   36 1    
    69   35   37 1    
    70   35  112 1    
    71   36  113 1    
    72   36  114 1    
    73   36  115 1    
    74   37   38 am   BACKBONE|DICT|INTERRES
    75   37  116 1    
    76   38   39 2    
    77   38   40 1    
    78   40   41 1    
    79   40   42 1    
    80   40  117 1    
    81   41  118 1    
    82   41  119 1    
    83   41  120 1    
    84   42   43 am   BACKBONE|DICT|INTERRES
    85   42  121 1    
    86   43   44 2    
    87   43   45 1    
    88   45   46 1    
    89   45   47 1    
    90   45  122 1    
    91   46  123 1    
    92   46  124 1    
    93   46  125 1    
    94   47   48 am   BACKBONE|DICT|INTERRES
    95   47  126 1    
    96   48   49 2    
    97   48   50 1    
    98   50   51 1    
    99   50   52 1    
   100   50  127 1    
   101   51  128 1    
   102   51  129 1    
   103   51  130 1    
   104   52   53 am   BACKBONE|DICT|INTERRES
   105   52  131 1    
   106   53   54 2    
   107   53   55 1    
   108   55   56 1    
   109   55   59 1    
   110   55  132 1    
   111   56   57 1    
   112   56  133 1    
   113   56  134 1    
   114   57   58 1    
   115   58  135 1    
   116   58  136 1    
   117   59   60 am   BACKBONE|DICT|INTERRES
   118   59  137 1    
   119   60   61 2    
   120   60   62 1    
   121   62   63 1    
   122   62   64 1    
   123   62  138 1    
   124   63  139 1    
   125   63  140 1    
   126   63  141 1    
   127   64   65 am   BACKBONE|DICT|INTERRES
   128   64  142 1    
   129   65   66 2    
   130   65   67 1    
   131   67   68 1    
   132   67   69 1    
   133   67  143 1    
   134   68  144 1    
   135   68  145 1    
   136   68  146 1    
   137   69   70 am   BACKBONE|DICT|INTERRES
   138   69  147 1    
   139   70   71 2    
   140   70   72 1    
   141   72   73 1    
   142   72   74 1    
   143   72  148 1    
   144   73  149 1    
   145   73  150 1    
   146   73  151 1    
   147   74   75 am   BACKBONE|DICT|INTERRES
   148   74  152 1    
   149   75   76 2    
   150   75   77 1    
   151   77   78 1    
   152   77   79 1    
   153   77  153 1    
   154   78  154 1    
   155   78  155 1    
   156   78  156 1    
   157   79   80 am   BACKBONE|DICT|INTERRES
   158   79  157 1    
   159   80   81 2    
@<TRIPOS>SUBSTRUCTURE
     1 UNK         1 GROUP             0       ****    0 ROOT    
