@<TRIPOS>MOLECULE
3R207
157   159    1
SMALL
USER_CHARGES


@<TRIPOS>ATOM
      1 CA        -49.9265  -29.2692    9.4191 C.3       0 UNK        -0.1975 
      2 C         -49.4038  -29.4597    8.0039 C.2       0 UNK         0.4852 
      3 O         -48.3237  -30.0197    7.8177 O.2       0 UNK        -0.5216 
      4 N         -50.1579  -28.9843    7.0043 N.am      1 UNK        -0.4461 
      5 CA        -49.8085  -29.0551    5.5762 C.3       1 UNK         0.0864 
      6 C6        -51.0434  -28.8129    4.6742 C.3       14 UNK        -0.0898 
      7 S7        -52.3520  -30.0541    4.9308 S.3       14 UNK        -0.2598 
      8 C8        -53.7254  -29.0233    5.5377 C.3       14 UNK         0.0286 
      9 C9        -53.5345  -28.5713    6.9804 C.ar      14 UNK        -0.0844 
     10 C10       -53.4689  -27.2126    7.3005 C.ar      14 UNK        -0.0881 
     11 C11       -53.4021  -26.7921    8.6337 C.ar      14 UNK        -0.0643 
     12 C12       -53.3842  -27.7560    9.6526 C.ar      14 UNK        -0.0930 
     13 C13       -53.4196  -29.1234    9.3444 C.ar      14 UNK        -0.0827 
     14 C14       -53.5011  -29.5166    8.0066 C.ar      14 UNK        -0.1249 
     15 C15       -53.4562  -30.2107   10.4156 C.3       14 UNK         0.0141 
     16 S16       -52.6148  -29.8000   11.9832 S.3       14 UNK        -0.2313 
     17 C17       -53.2417  -31.1644   13.0258 C.3       14 UNK        -0.0915 
     18 CA        -54.4937  -30.8117   13.8842 C.3       13 UNK         0.0968 
     19 C         -54.1533  -30.1449   15.2490 C.2       13 UNK         0.5732 
     20 N         -54.8591  -29.1083   15.6846 N.am      13 UNK        -0.7310 
     21 O         -53.2545  -30.6004   15.9520 O.2       13 UNK        -0.5035 
     22 N         -55.5016  -30.0811   13.1030 N.am      13 UNK        -0.4233 
     23 C         -56.8237  -30.2807   13.1283 C.2       13 UNK         0.4989 
     24 O         -57.3692  -31.1718   13.7816 O.2       13 UNK        -0.4996 
     25 CA        -57.6759  -29.3203   12.2671 C.3       12 UNK         0.0216 
     26 CB        -59.1441  -29.2431   12.7388 C.3       12 UNK        -0.1964 
     27 N         -57.1020  -27.9702   12.1366 N.am      12 UNK        -0.4276 
     28 C         -56.8066  -27.1289   13.1381 C.2       12 UNK         0.5020 
     29 O         -57.0082  -27.3780   14.3303 O.2       12 UNK        -0.5489 
     30 CA        -56.1587  -25.7886   12.7409 C.3       11 UNK         0.0294 
     31 CB        -57.2287  -24.6990   12.5704 C.3       11 UNK        -0.2019 
     32 N         -55.1800  -25.3555   13.7424 N.am      11 UNK        -0.4493 
     33 C         -54.0589  -26.0317   14.0213 C.2       11 UNK         0.4932 
     34 O         -53.6781  -27.0087   13.3705 O.2       11 UNK        -0.5029 
     35 CA        -53.2496  -25.5677   15.2411 C.3       10 UNK         0.0280 
     36 CB        -54.0815  -25.6005   16.5408 C.3       10 UNK        -0.1976 
     37 N         -52.0905  -26.4469   15.3403 N.am      10 UNK        -0.4242 
     38 C         -50.9771  -26.2465   16.0496 C.2       10 UNK         0.5072 
     39 O         -50.8429  -25.3259   16.8583 O.2       10 UNK        -0.5224 
     40 CA        -49.8168  -27.2386   15.8229 C.3       9 UNK         0.0343 
     41 CB        -50.1217  -28.3427   14.7860 C.3       9 UNK        -0.2003 
     42 N         -48.6268  -26.5071   15.3909 N.am      9 UNK        -0.4272 
     43 C         -47.7177  -25.9505   16.2022 C.2       9 UNK         0.4988 
     44 O         -47.6919  -26.1071   17.4241 O.2       9 UNK        -0.5108 
     45 CA        -46.6508  -25.0621   15.5377 C.3       8 UNK         0.0248 
     46 CB        -45.4943  -25.9146   14.9905 C.3       8 UNK        -0.2001 
     47 N         -47.1987  -24.2211   14.4688 N.am      8 UNK        -0.4140 
     48 C         -48.0383  -23.1932   14.6663 C.2       8 UNK         0.5028 
     49 O         -48.3721  -22.7864   15.7799 O.2       8 UNK        -0.5428 
     50 CA        -48.6034  -22.4918   13.4175 C.3       7 UNK         0.0264 
     51 CB        -47.6406  -21.3989   12.9268 C.3       7 UNK        -0.1988 
     52 N         -48.9125  -23.4176   12.3225 N.am      7 UNK        -0.4454 
     53 C         -49.8915  -24.3357   12.3693 C.2       7 UNK         0.5027 
     54 O         -50.6687  -24.4368   13.3159 O.2       7 UNK        -0.5083 
     55 CA        -50.0021  -25.3365   11.1948 C.3       6 UNK         0.0844 
     56 C56       -50.8855  -24.8017   10.0414 C.3       14 UNK        -0.0967 
     57 S57       -52.6562  -24.7603   10.4810 S.3       14 UNK        -0.2604 
     58 C58       -53.4516  -25.2913    8.9275 C.3       14 UNK         0.0134 
     59 N         -48.6849  -25.7538   10.7116 N.am      6 UNK        -0.4116 
     60 C         -47.7939  -26.4498   11.4307 C.2       5 UNK         0.5034 
     61 O         -48.0081  -26.8727   12.5657 O.2       5 UNK        -0.5045 
     62 CA        -46.4090  -26.6580   10.7997 C.3       5 UNK         0.0224 
     63 CB        -46.4256  -27.8032    9.7770 C.3       5 UNK        -0.1978 
     64 N         -45.9044  -25.4370   10.1684 N.am      5 UNK        -0.4737 
     65 C         -45.5174  -24.3480   10.8463 C.2       4 UNK         0.5027 
     66 O         -45.5315  -24.2686   12.0732 O.2       4 UNK        -0.5211 
     67 CA        -45.0692  -23.1348   10.0155 C.3       4 UNK         0.0297 
     68 CB        -43.5882  -23.2651    9.6269 C.3       4 UNK        -0.1993 
     69 N         -45.8797  -22.9386    8.8109 N.am      4 UNK        -0.4486 
     70 C         -47.1789  -22.6088    8.8190 C.2       3 UNK         0.4961 
     71 O         -47.8372  -22.4275    9.8418 O.2       3 UNK        -0.5105 
     72 CA        -47.8749  -22.5278    7.4514 C.3       3 UNK         0.0299 
     73 CB        -47.5342  -21.2082    6.7406 C.3       3 UNK        -0.1972 
     74 N         -47.5604  -23.6634    6.5775 N.am      3 UNK        -0.4305 
     75 C         -47.8264  -24.9404    6.8793 C.2       2 UNK         0.5006 
     76 O         -48.3230  -25.3084    7.9485 O.2       2 UNK        -0.5106 
     77 CA        -47.4640  -25.9926    5.8306 C.3       2 UNK         0.0296 
     78 CB        -46.0037  -26.4549    5.9891 C.3       2 UNK        -0.2002 
     79 N         -48.3839  -27.1028    6.0334 N.am      2 UNK        -0.4032 
     80 C         -48.6753  -28.0832    5.1744 C.2       1 UNK         0.5000 
     81 O         -48.1142  -28.2238    4.0858 O.2       1 UNK        -0.5238 
     82 H82       -50.5020  -30.1422    9.7237 H         1 UNK         0.0889 
     83 H83       -50.5640  -28.3889    9.4955 H         1 UNK         0.0889 
     84 H84       -49.1056  -29.1452   10.1234 H         1 UNK         0.0889 
     85 H85       -51.0666  -28.5904    7.2115 H         1 UNK         0.3028 
     86 H86       -49.4361  -30.0620    5.3748 H         1 UNK         0.0864 
     87 H87       -50.7641  -28.8616    3.6196 H         1 UNK         0.0720 
     88 H88       -51.4443  -27.8100    4.8333 H         1 UNK         0.0720 
     89 H89       -53.8639  -28.1713    4.8701 H         1 UNK         0.0814 
     90 H90       -54.6464  -29.6048    5.4765 H         1 UNK         0.0814 
     91 H91       -53.5177  -26.4753    6.5103 H         1 UNK         0.1469 
     92 H92       -53.3660  -27.4418   10.6869 H         1 UNK         0.1381 
     93 H93       -53.5666  -30.5676    7.7583 H         1 UNK         0.1206 
     94 H94       -53.0036  -31.1248   10.0280 H         1 UNK         0.0813 
     95 H95       -54.5019  -30.4480   10.6100 H         1 UNK         0.0813 
     96 H96       -52.4212  -31.5235   13.6491 H         1 UNK         0.0638 
     97 H97       -53.4851  -32.0065   12.3763 H         1 UNK         0.0638 
     98 H98       -54.9295  -31.7692   14.1742 H         1 UNK         0.0568 
     99 H99       -55.6033  -28.7040   15.1283 H         1 UNK         0.3450 
    100 H100      -54.6367  -28.7185   16.5847 H         1 UNK         0.3450 
    101 H101      -55.1381  -29.2927   12.5864 H         1 UNK         0.2987 
    102 H102      -57.6771  -29.7474   11.2632 H         1 UNK         0.0766 
    103 H103      -59.7307  -28.5792   12.1039 H         1 UNK         0.0798 
    104 H104      -59.2207  -28.8802   13.7643 H         1 UNK         0.0798 
    105 H105      -59.6203  -30.2238   12.7049 H         1 UNK         0.0798 
    106 H106      -56.8951  -27.6768   11.1911 H         1 UNK         0.3198 
    107 H107      -55.6317  -25.9157   11.7920 H         1 UNK         0.0843 
    108 H108      -57.7785  -24.5253   13.4966 H         1 UNK         0.0831 
    109 H109      -57.9567  -24.9817   11.8088 H         1 UNK         0.0831 
    110 H110      -56.7864  -23.7528   12.2579 H         1 UNK         0.0831 
    111 H111      -55.4470  -24.5851   14.3370 H         1 UNK         0.3133 
    112 H112      -52.9017  -24.5508   15.0506 H         1 UNK         0.0566 
    113 H113      -53.4932  -25.2851   17.4021 H         1 UNK         0.0814 
    114 H114      -54.9380  -24.9286   16.4824 H         1 UNK         0.0814 
    115 H115      -54.4657  -26.5978   16.7495 H         1 UNK         0.0814 
    116 H116      -52.1217  -27.2008   14.6623 H         1 UNK         0.3091 
    117 H117      -49.6185  -27.7258   16.7796 H         1 UNK         0.0702 
    118 H118      -50.9725  -28.9538   15.0914 H         1 UNK         0.0785 
    119 H119      -50.3409  -27.9308   13.7993 H         1 UNK         0.0785 
    120 H120      -49.2725  -29.0170   14.6738 H         1 UNK         0.0785 
    121 H121      -48.5296  -26.3647   14.3900 H         1 UNK         0.2998 
    122 H122      -46.2456  -24.4010   16.3067 H         1 UNK         0.0697 
    123 H123      -45.8260  -26.5872   14.1992 H         1 UNK         0.0825 
    124 H124      -45.0555  -26.5284   15.7782 H         1 UNK         0.0825 
    125 H125      -44.6985  -25.2893   14.5852 H         1 UNK         0.0825 
    126 H126      -46.8911  -24.4252   13.5226 H         1 UNK         0.3029 
    127 H127      -49.5369  -22.0073   13.7123 H         1 UNK         0.0897 
    128 H128      -48.0710  -20.8330   12.1004 H         1 UNK         0.0792 
    129 H129      -46.6927  -21.8175   12.5889 H         1 UNK         0.0792 
    130 H130      -47.4179  -20.6884   13.7240 H         1 UNK         0.0792 
    131 H131      -48.3622  -23.3198   11.4730 H         1 UNK         0.3086 
    132 H132      -50.4811  -26.2372   11.5869 H         1 UNK         0.0583 
    133 H133      -50.5635  -23.8080    9.7235 H         1 UNK         0.1020 
    134 H134      -50.7713  -25.4462    9.1683 H         1 UNK         0.1020 
    135 H135      -54.5004  -24.9953    8.9702 H         1 UNK         0.0694 
    136 H136      -53.0086  -24.7285    8.1042 H         1 UNK         0.0694 
    137 H137      -48.4367  -25.4670    9.7670 H         1 UNK         0.2989 
    138 H138      -45.7203  -26.9324   11.6023 H         1 UNK         0.1055 
    139 H139      -46.7331  -28.7386   10.2457 H         1 UNK         0.0806 
    140 H140      -45.4360  -27.9706    9.3518 H         1 UNK         0.0806 
    141 H141      -47.1146  -27.6061    8.9558 H         1 UNK         0.0806 
    142 H142      -45.9007  -25.4047    9.1601 H         1 UNK         0.3061 
    143 H143      -45.1795  -22.2468   10.6414 H         1 UNK         0.0734 
    144 H144      -43.2329  -22.3732    9.1104 H         1 UNK         0.0832 
    145 H145      -42.9643  -23.3936   10.5127 H         1 UNK         0.0832 
    146 H146      -43.4116  -24.1236    8.9777 H         1 UNK         0.0832 
    147 H147      -45.4235  -23.0743    7.9205 H         1 UNK         0.3156 
    148 H148      -48.9519  -22.5442    7.6327 H         1 UNK         0.0589 
    149 H149      -46.4754  -21.1423    6.4875 H         1 UNK         0.0808 
    150 H150      -48.1071  -21.0941    5.8201 H         1 UNK         0.0808 
    151 H151      -47.7713  -20.3523    7.3744 H         1 UNK         0.0808 
    152 H152      -47.1469  -23.4484    5.6810 H         1 UNK         0.3098 
    153 H153      -47.6204  -25.5754    4.8338 H         1 UNK         0.0720 
    154 H154      -45.8223  -26.8967    6.9688 H         1 UNK         0.0791 
    155 H155      -45.3117  -25.6201    5.8718 H         1 UNK         0.0791 
    156 H156      -45.7392  -27.1985    5.2372 H         1 UNK         0.0791 
    157 H157      -48.8991  -27.0431    6.9031 H         1 UNK         0.3028 
@<TRIPOS>BOND
     1    1    2 1    
     2    1   82 1    
     3    1   83 1    
     4    1   84 1    
     5    2    3 2    
     6    2    4 am   BACKBONE|DICT|INTERRES
     7    4    5 1    
     8    4   85 1    
     9    5    6 1    
    10    5   80 1    
    11    5   86 1    
    12    6    7 1    
    13    6   87 1    
    14    6   88 1    
    15    7    8 1    
    16    8    9 1    
    17    8   89 1    
    18    8   90 1    
    19    9   10 ar   
    20    9   14 ar   
    21   10   11 ar   
    22   10   91 1    
    23   11   12 ar   
    24   11   58 1    
    25   12   13 ar   
    26   12   92 1    
    27   13   14 ar   
    28   13   15 1    
    29   14   93 1    
    30   15   16 1    
    31   15   94 1    
    32   15   95 1    
    33   16   17 1    
    34   17   18 1    
    35   17   96 1    
    36   17   97 1    
    37   18   19 1    
    38   18   22 1    
    39   18   98 1    
    40   19   20 am   BACKBONE|DICT|INTERRES
    41   19   21 2    
    42   20   99 1    
    43   20  100 1    
    44   22   23 am   BACKBONE|DICT|INTERRES
    45   22  101 1    
    46   23   24 2    
    47   23   25 1    
    48   25   26 1    
    49   25   27 1    
    50   25  102 1    
    51   26  103 1    
    52   26  104 1    
    53   26  105 1    
    54   27   28 am   BACKBONE|DICT|INTERRES
    55   27  106 1    
    56   28   29 2    
    57   28   30 1    
    58   30   31 1    
    59   30   32 1    
    60   30  107 1    
    61   31  108 1    
    62   31  109 1    
    63   31  110 1    
    64   32   33 am   BACKBONE|DICT|INTERRES
    65   32  111 1    
    66   33   34 2    
    67   33   35 1    
    68   35   36 1    
    69   35   37 1    
    70   35  112 1    
    71   36  113 1    
    72   36  114 1    
    73   36  115 1    
    74   37   38 am   BACKBONE|DICT|INTERRES
    75   37  116 1    
    76   38   39 2    
    77   38   40 1    
    78   40   41 1    
    79   40   42 1    
    80   40  117 1    
    81   41  118 1    
    82   41  119 1    
    83   41  120 1    
    84   42   43 am   BACKBONE|DICT|INTERRES
    85   42  121 1    
    86   43   44 2    
    87   43   45 1    
    88   45   46 1    
    89   45   47 1    
    90   45  122 1    
    91   46  123 1    
    92   46  124 1    
    93   46  125 1    
    94   47   48 am   BACKBONE|DICT|INTERRES
    95   47  126 1    
    96   48   49 2    
    97   48   50 1    
    98   50   51 1    
    99   50   52 1    
   100   50  127 1    
   101   51  128 1    
   102   51  129 1    
   103   51  130 1    
   104   52   53 am   BACKBONE|DICT|INTERRES
   105   52  131 1    
   106   53   54 2    
   107   53   55 1    
   108   55   56 1    
   109   55   59 1    
   110   55  132 1    
   111   56   57 1    
   112   56  133 1    
   113   56  134 1    
   114   57   58 1    
   115   58  135 1    
   116   58  136 1    
   117   59   60 am   BACKBONE|DICT|INTERRES
   118   59  137 1    
   119   60   61 2    
   120   60   62 1    
   121   62   63 1    
   122   62   64 1    
   123   62  138 1    
   124   63  139 1    
   125   63  140 1    
   126   63  141 1    
   127   64   65 am   BACKBONE|DICT|INTERRES
   128   64  142 1    
   129   65   66 2    
   130   65   67 1    
   131   67   68 1    
   132   67   69 1    
   133   67  143 1    
   134   68  144 1    
   135   68  145 1    
   136   68  146 1    
   137   69   70 am   BACKBONE|DICT|INTERRES
   138   69  147 1    
   139   70   71 2    
   140   70   72 1    
   141   72   73 1    
   142   72   74 1    
   143   72  148 1    
   144   73  149 1    
   145   73  150 1    
   146   73  151 1    
   147   74   75 am   BACKBONE|DICT|INTERRES
   148   74  152 1    
   149   75   76 2    
   150   75   77 1    
   151   77   78 1    
   152   77   79 1    
   153   77  153 1    
   154   78  154 1    
   155   78  155 1    
   156   78  156 1    
   157   79   80 am   BACKBONE|DICT|INTERRES
   158   79  157 1    
   159   80   81 2    
@<TRIPOS>SUBSTRUCTURE
     1 UNK         1 GROUP             0       ****    0 ROOT    
