@<TRIPOS>MOLECULE
3R207
157   159    1
SMALL
USER_CHARGES


@<TRIPOS>ATOM
      1 CA        -47.5194  -29.0317    1.9837 C.3       0 UNK        -0.1975 
      2 C         -48.6499  -28.0417    2.2217 C.2       0 UNK         0.4852 
      3 O         -48.8382  -27.1243    1.4221 O.2       0 UNK        -0.5216 
      4 N         -49.4026  -28.2205    3.3159 N.am      1 UNK        -0.4461 
      5 CA        -50.5437  -27.3768    3.6980 C.3       1 UNK         0.0864 
      6 C6        -51.3934  -28.0213    4.8189 C.3       14 UNK        -0.0898 
      7 S7        -52.0658  -29.6617    4.3883 S.3       14 UNK        -0.2598 
      8 C8        -51.2097  -30.7544    5.5814 C.3       14 UNK         0.0286 
      9 C9        -51.3457  -30.3620    7.0559 C.ar      14 UNK        -0.0844 
     10 C10       -50.3310  -30.7285    7.9467 C.ar      14 UNK        -0.0881 
     11 C11       -50.4127  -30.3941    9.3012 C.ar      14 UNK        -0.0643 
     12 C12       -51.5218  -29.6855    9.7697 C.ar      14 UNK        -0.0930 
     13 C13       -52.5317  -29.2877    8.8910 C.ar      14 UNK        -0.0827 
     14 C14       -52.4495  -29.6484    7.5431 C.ar      14 UNK        -0.1249 
     15 C15       -53.6929  -28.4343    9.3788 C.3       14 UNK         0.0141 
     16 S16       -55.1197  -29.4432    9.8804 S.3       14 UNK        -0.2313 
     17 C17       -54.9256  -29.5049   11.6951 C.3       14 UNK        -0.0915 
     18 CA        -55.6539  -28.3333   12.4226 C.3       13 UNK         0.0968 
     19 C         -57.2062  -28.4947   12.5277 C.2       13 UNK         0.5732 
     20 N         -57.8598  -27.8887   13.5133 N.am      13 UNK        -0.7310 
     21 O         -57.8379  -29.1527   11.7049 O.2       13 UNK        -0.5035 
     22 N         -55.0037  -27.9820   13.6967 N.am      13 UNK        -0.4233 
     23 C         -54.9616  -28.7518   14.7948 C.2       13 UNK         0.4989 
     24 O         -55.3872  -29.9065   14.8391 O.2       13 UNK        -0.4996 
     25 CA        -54.3596  -28.1359   16.0713 C.3       12 UNK         0.0216 
     26 CB        -53.0811  -28.8791   16.4935 C.3       12 UNK        -0.1964 
     27 N         -54.0665  -26.7049   15.9446 N.am      12 UNK        -0.4276 
     28 C         -54.9620  -25.7208   16.1010 C.2       12 UNK         0.5020 
     29 O         -56.1546  -25.9143   16.3392 O.2       12 UNK        -0.5489 
     30 CA        -54.4446  -24.2855   15.9385 C.3       11 UNK         0.0294 
     31 CB        -53.6245  -23.8611   17.1673 C.3       11 UNK        -0.2019 
     32 N         -53.6179  -24.1560   14.7374 N.am      11 UNK        -0.4493 
     33 C         -54.0390  -23.6429   13.5749 C.2       11 UNK         0.4932 
     34 O         -55.1865  -23.2333   13.3909 O.2       11 UNK        -0.5029 
     35 CA        -53.0174  -23.5922   12.4183 C.3       10 UNK         0.0280 
     36 CB        -53.4227  -22.6035   11.3056 C.3       10 UNK        -0.1976 
     37 N         -51.6316  -23.3400   12.8340 N.am      10 UNK        -0.4242 
     38 C         -51.1523  -22.3067   13.5418 C.2       10 UNK         0.5072 
     39 O         -51.8415  -21.3925   13.9990 O.2       10 UNK        -0.5224 
     40 CA        -49.6286  -22.3262   13.7690 C.3       9 UNK         0.0343 
     41 CB        -49.0832  -21.0314   14.4091 C.3       9 UNK        -0.2003 
     42 N         -49.2136  -23.5161   14.5220 N.am      9 UNK        -0.4272 
     43 C         -49.5368  -23.8402   15.7854 C.2       9 UNK         0.4988 
     44 O         -50.1825  -23.1159   16.5441 O.2       9 UNK        -0.5108 
     45 CA        -49.0669  -25.2304   16.2670 C.3       8 UNK         0.0248 
     46 CB        -49.6594  -25.6377   17.6329 C.3       8 UNK        -0.2001 
     47 N         -49.3067  -26.2795   15.2698 N.am      8 UNK        -0.4140 
     48 C         -50.4815  -26.5952   14.7028 C.2       8 UNK         0.5028 
     49 O         -51.5544  -26.0870   15.0290 O.2       8 UNK        -0.5428 
     50 CA        -50.4738  -27.5897   13.5309 C.3       7 UNK         0.0264 
     51 CB        -51.1250  -26.9366   12.3018 C.3       7 UNK        -0.1988 
     52 N         -49.1165  -27.9987   13.1755 N.am      7 UNK        -0.4454 
     53 C         -48.5598  -29.1797   13.4812 C.2       7 UNK         0.5027 
     54 O         -49.1425  -30.0751   14.0940 O.2       7 UNK        -0.5083 
     55 CA        -47.0976  -29.4004   13.0275 C.3       6 UNK         0.0844 
     56 C56       -47.0012  -30.2415   11.7267 C.3       14 UNK        -0.0967 
     57 S57       -47.9541  -29.5909   10.3041 S.3       14 UNK        -0.2604 
     58 C58       -49.3106  -30.8080   10.2622 C.3       14 UNK         0.0134 
     59 N         -46.3295  -28.1530   12.9392 N.am      6 UNK        -0.4116 
     60 C         -46.0228  -27.3753   13.9886 C.2       5 UNK         0.5034 
     61 O         -46.3494  -27.6288   15.1480 O.2       5 UNK        -0.5045 
     62 CA        -45.2759  -26.0628   13.6987 C.3       5 UNK         0.0224 
     63 CB        -43.7564  -26.2849   13.7612 C.3       5 UNK        -0.1978 
     64 N         -45.6236  -25.4301   12.4209 N.am      5 UNK        -0.4737 
     65 C         -46.8543  -25.0537   12.0470 C.2       4 UNK         0.5027 
     66 O         -47.8596  -25.2774   12.7241 O.2       4 UNK        -0.5211 
     67 CA        -46.9895  -24.3025   10.7095 C.3       4 UNK         0.0297 
     68 CB        -45.6601  -24.1138    9.9489 C.3       4 UNK        -0.1993 
     69 N         -47.9385  -24.9806    9.8301 N.am      4 UNK        -0.4486 
     70 C         -49.2669  -24.8142    9.8485 C.2       3 UNK         0.4961 
     71 O         -49.8570  -24.0732   10.6360 O.2       3 UNK        -0.5105 
     72 CA        -50.0523  -25.5991    8.7778 C.3       3 UNK         0.0299 
     73 CB        -51.5406  -25.1987    8.7061 C.3       3 UNK        -0.1972 
     74 N         -49.4281  -25.5236    7.4477 N.am      3 UNK        -0.4305 
     75 C         -49.1210  -24.4157    6.7473 C.2       2 UNK         0.5006 
     76 O         -49.3480  -23.2659    7.1240 O.2       2 UNK        -0.5106 
     77 CA        -48.4332  -24.6303    5.3857 C.3       2 UNK         0.0296 
     78 CB        -46.9068  -24.7029    5.5592 C.3       2 UNK        -0.2002 
     79 N         -48.9070  -25.8374    4.7045 N.am      2 UNK        -0.4032 
     80 C         -50.1254  -25.9643    4.1566 C.2       1 UNK         0.5000 
     81 O         -50.9256  -25.0334    4.0463 O.2       1 UNK        -0.5238 
     82 H82       -46.5632  -28.5099    1.9562 H         1 UNK         0.0889 
     83 H83       -47.6593  -29.5374    1.0287 H         1 UNK         0.0889 
     84 H84       -47.4695  -29.7906    2.7644 H         1 UNK         0.0889 
     85 H85       -49.2206  -29.0095    3.9190 H         1 UNK         0.3028 
     86 H86       -51.1772  -27.2542    2.8166 H         1 UNK         0.0864 
     87 H87       -52.2480  -27.3856    5.0607 H         1 UNK         0.0720 
     88 H88       -50.8085  -28.0911    5.7373 H         1 UNK         0.0720 
     89 H89       -50.1550  -30.7933    5.3055 H         1 UNK         0.0814 
     90 H90       -51.5954  -31.7671    5.4583 H         1 UNK         0.0814 
     91 H91       -49.4713  -31.2783    7.5878 H         1 UNK         0.1469 
     92 H92       -51.5955  -29.4433   10.8193 H         1 UNK         0.1381 
     93 H93       -53.2445  -29.3532    6.8730 H         1 UNK         0.1206 
     94 H94       -54.0097  -27.7625    8.5796 H         1 UNK         0.0813 
     95 H95       -53.3766  -27.7882   10.1988 H         1 UNK         0.0813 
     96 H96       -55.2889  -30.4685   12.0559 H         1 UNK         0.0638 
     97 H97       -53.8582  -29.4902   11.9201 H         1 UNK         0.0638 
     98 H98       -55.5204  -27.4425   11.8081 H         1 UNK         0.0568 
     99 H99       -58.8606  -27.9904   13.5723 H         1 UNK         0.3450 
    100 H100      -57.3676  -27.3401   14.2013 H         1 UNK         0.3450 
    101 H101      -54.6474  -27.0414   13.7684 H         1 UNK         0.2987 
    102 H102      -55.0973  -28.2680   16.8658 H         1 UNK         0.0766 
    103 H103      -52.3139  -28.8384   15.7225 H         1 UNK         0.0798 
    104 H104      -53.2881  -29.9324   16.6879 H         1 UNK         0.0798 
    105 H105      -52.6604  -28.4590   17.4074 H         1 UNK         0.0798 
    106 H106      -53.1047  -26.4566   15.7040 H         1 UNK         0.3198 
    107 H107      -55.3109  -23.6234   15.8738 H         1 UNK         0.0843 
    108 H108      -53.2984  -22.8241   17.0833 H         1 UNK         0.0831 
    109 H109      -52.7333  -24.4758   17.2935 H         1 UNK         0.0831 
    110 H110      -54.2143  -23.9450   18.0810 H         1 UNK         0.0831 
    111 H111      -52.6772  -24.5388   14.7916 H         1 UNK         0.3133 
    112 H112      -53.0205  -24.5896   11.9785 H         1 UNK         0.0566 
    113 H113      -54.3959  -22.8593   10.8849 H         1 UNK         0.0814 
    114 H114      -53.4861  -21.5813   11.6803 H         1 UNK         0.0814 
    115 H115      -52.7043  -22.6165   10.4856 H         1 UNK         0.0814 
    116 H116      -50.9421  -23.9592   12.4217 H         1 UNK         0.3091 
    117 H117      -49.1694  -22.4156   12.7831 H         1 UNK         0.0702 
    118 H118      -48.0007  -21.0738   14.5275 H         1 UNK         0.0785 
    119 H119      -49.5212  -20.8411   15.3892 H         1 UNK         0.0785 
    120 H120      -49.3084  -20.1672   13.7831 H         1 UNK         0.0785 
    121 H121      -48.7087  -24.2102   13.9728 H         1 UNK         0.2998 
    122 H122      -47.9845  -25.1603   16.3843 H         1 UNK         0.0697 
    123 H123      -49.2545  -26.5920   17.9691 H         1 UNK         0.0825 
    124 H124      -49.4237  -24.8986   18.3995 H         1 UNK         0.0825 
    125 H125      -50.7442  -25.7322   17.5937 H         1 UNK         0.0825 
    126 H126      -48.4796  -26.7515   14.9291 H         1 UNK         0.3029 
    127 H127      -51.0670  -28.4609   13.8127 H         1 UNK         0.0897 
    128 H128      -50.8922  -27.4662   11.3816 H         1 UNK         0.0792 
    129 H129      -52.2097  -26.9037   12.4060 H         1 UNK         0.0792 
    130 H130      -50.7763  -25.9151   12.1722 H         1 UNK         0.0792 
    131 H131      -48.5549  -27.2991   12.7025 H         1 UNK         0.3086 
    132 H132      -46.6245  -29.9904   13.8158 H         1 UNK         0.0583 
    133 H133      -45.9570  -30.3308   11.4228 H         1 UNK         0.1020 
    134 H134      -47.3180  -31.2654   11.9347 H         1 UNK         0.1020 
    135 H135      -48.9121  -31.7823    9.9749 H         1 UNK         0.0694 
    136 H136      -49.7242  -30.9294   11.2647 H         1 UNK         0.0694 
    137 H137      -46.0429  -27.8600   12.0167 H         1 UNK         0.2989 
    138 H138      -45.5499  -25.3613   14.4900 H         1 UNK         0.1055 
    139 H139      -43.4108  -26.9480   12.9670 H         1 UNK         0.0806 
    140 H140      -43.4659  -26.7357   14.7114 H         1 UNK         0.0806 
    141 H141      -43.2130  -25.3438   13.6742 H         1 UNK         0.0806 
    142 H142      -44.8542  -25.2103   11.8044 H         1 UNK         0.3061 
    143 H143      -47.3755  -23.3092   10.9485 H         1 UNK         0.0734 
    144 H144      -45.8171  -23.5501    9.0287 H         1 UNK         0.0832 
    145 H145      -44.9388  -23.5481   10.5404 H         1 UNK         0.0832 
    146 H146      -45.2017  -25.0649    9.6743 H         1 UNK         0.0832 
    147 H147      -47.5511  -25.6311    9.1631 H         1 UNK         0.3156 
    148 H148      -50.0110  -26.6475    9.0786 H         1 UNK         0.0589 
    149 H149      -51.6630  -24.1486    8.4388 H         1 UNK         0.0808 
    150 H150      -52.0763  -25.7983    7.9702 H         1 UNK         0.0808 
    151 H151      -52.0332  -25.3495    9.6671 H         1 UNK         0.0808 
    152 H152      -49.1808  -26.4125    7.0385 H         1 UNK         0.3098 
    153 H153      -48.6635  -23.7676    4.7565 H         1 UNK         0.0720 
    154 H154      -46.5280  -23.8054    6.0506 H         1 UNK         0.0791 
    155 H155      -46.6050  -25.5577    6.1658 H         1 UNK         0.0791 
    156 H156      -46.4022  -24.7797    4.5958 H         1 UNK         0.0791 
    157 H157      -48.3015  -26.6450    4.7174 H         1 UNK         0.3028 
@<TRIPOS>BOND
     1    1    2 1    
     2    1   82 1    
     3    1   83 1    
     4    1   84 1    
     5    2    3 2    
     6    2    4 am   BACKBONE|DICT|INTERRES
     7    4    5 1    
     8    4   85 1    
     9    5    6 1    
    10    5   80 1    
    11    5   86 1    
    12    6    7 1    
    13    6   87 1    
    14    6   88 1    
    15    7    8 1    
    16    8    9 1    
    17    8   89 1    
    18    8   90 1    
    19    9   10 ar   
    20    9   14 ar   
    21   10   11 ar   
    22   10   91 1    
    23   11   12 ar   
    24   11   58 1    
    25   12   13 ar   
    26   12   92 1    
    27   13   14 ar   
    28   13   15 1    
    29   14   93 1    
    30   15   16 1    
    31   15   94 1    
    32   15   95 1    
    33   16   17 1    
    34   17   18 1    
    35   17   96 1    
    36   17   97 1    
    37   18   19 1    
    38   18   22 1    
    39   18   98 1    
    40   19   20 am   BACKBONE|DICT|INTERRES
    41   19   21 2    
    42   20   99 1    
    43   20  100 1    
    44   22   23 am   BACKBONE|DICT|INTERRES
    45   22  101 1    
    46   23   24 2    
    47   23   25 1    
    48   25   26 1    
    49   25   27 1    
    50   25  102 1    
    51   26  103 1    
    52   26  104 1    
    53   26  105 1    
    54   27   28 am   BACKBONE|DICT|INTERRES
    55   27  106 1    
    56   28   29 2    
    57   28   30 1    
    58   30   31 1    
    59   30   32 1    
    60   30  107 1    
    61   31  108 1    
    62   31  109 1    
    63   31  110 1    
    64   32   33 am   BACKBONE|DICT|INTERRES
    65   32  111 1    
    66   33   34 2    
    67   33   35 1    
    68   35   36 1    
    69   35   37 1    
    70   35  112 1    
    71   36  113 1    
    72   36  114 1    
    73   36  115 1    
    74   37   38 am   BACKBONE|DICT|INTERRES
    75   37  116 1    
    76   38   39 2    
    77   38   40 1    
    78   40   41 1    
    79   40   42 1    
    80   40  117 1    
    81   41  118 1    
    82   41  119 1    
    83   41  120 1    
    84   42   43 am   BACKBONE|DICT|INTERRES
    85   42  121 1    
    86   43   44 2    
    87   43   45 1    
    88   45   46 1    
    89   45   47 1    
    90   45  122 1    
    91   46  123 1    
    92   46  124 1    
    93   46  125 1    
    94   47   48 am   BACKBONE|DICT|INTERRES
    95   47  126 1    
    96   48   49 2    
    97   48   50 1    
    98   50   51 1    
    99   50   52 1    
   100   50  127 1    
   101   51  128 1    
   102   51  129 1    
   103   51  130 1    
   104   52   53 am   BACKBONE|DICT|INTERRES
   105   52  131 1    
   106   53   54 2    
   107   53   55 1    
   108   55   56 1    
   109   55   59 1    
   110   55  132 1    
   111   56   57 1    
   112   56  133 1    
   113   56  134 1    
   114   57   58 1    
   115   58  135 1    
   116   58  136 1    
   117   59   60 am   BACKBONE|DICT|INTERRES
   118   59  137 1    
   119   60   61 2    
   120   60   62 1    
   121   62   63 1    
   122   62   64 1    
   123   62  138 1    
   124   63  139 1    
   125   63  140 1    
   126   63  141 1    
   127   64   65 am   BACKBONE|DICT|INTERRES
   128   64  142 1    
   129   65   66 2    
   130   65   67 1    
   131   67   68 1    
   132   67   69 1    
   133   67  143 1    
   134   68  144 1    
   135   68  145 1    
   136   68  146 1    
   137   69   70 am   BACKBONE|DICT|INTERRES
   138   69  147 1    
   139   70   71 2    
   140   70   72 1    
   141   72   73 1    
   142   72   74 1    
   143   72  148 1    
   144   73  149 1    
   145   73  150 1    
   146   73  151 1    
   147   74   75 am   BACKBONE|DICT|INTERRES
   148   74  152 1    
   149   75   76 2    
   150   75   77 1    
   151   77   78 1    
   152   77   79 1    
   153   77  153 1    
   154   78  154 1    
   155   78  155 1    
   156   78  156 1    
   157   79   80 am   BACKBONE|DICT|INTERRES
   158   79  157 1    
   159   80   81 2    
@<TRIPOS>SUBSTRUCTURE
     1 UNK         1 GROUP             0       ****    0 ROOT    
