@<TRIPOS>MOLECULE
3R207
157   159    1
SMALL
USER_CHARGES


@<TRIPOS>ATOM
      1 CA        -48.0852  -32.1940    6.6844 C.3       0 UNK        -0.1975 
      2 C         -49.0039  -30.9897    6.8270 C.2       0 UNK         0.4852 
      3 O         -49.8226  -30.7373    5.9427 O.2       0 UNK        -0.5216 
      4 N         -48.8726  -30.2448    7.9331 N.am      1 UNK        -0.4461 
      5 CA        -49.6829  -29.0621    8.2507 C.3       1 UNK         0.0864 
      6 C6        -49.5429  -28.6615    9.7372 C.3       14 UNK        -0.0898 
      7 S7        -50.0605  -29.9182   10.9555 S.3       14 UNK        -0.2598 
      8 C8        -51.7753  -30.3305   10.4680 C.3       14 UNK         0.0286 
      9 C9        -52.6788  -29.1319   10.1826 C.ar      14 UNK        -0.0844 
     10 C10       -52.6210  -27.9659   10.9522 C.ar      14 UNK        -0.0881 
     11 C11       -53.4447  -26.8765   10.6575 C.ar      14 UNK        -0.0643 
     12 C12       -54.3726  -26.9751    9.6151 C.ar      14 UNK        -0.0930 
     13 C13       -54.4669  -28.1459    8.8565 C.ar      14 UNK        -0.0827 
     14 C14       -53.6038  -29.2106    9.1385 C.ar      14 UNK        -0.1249 
     15 C15       -55.4556  -28.2325    7.6967 C.3       14 UNK         0.0141 
     16 S16       -56.3449  -29.8258    7.6224 S.3       14 UNK        -0.2313 
     17 C17       -57.8532  -29.5221    8.6090 C.3       14 UNK        -0.0915 
     18 CA        -57.7765  -29.8838   10.1190 C.3       13 UNK         0.0968 
     19 C         -57.2740  -31.3304   10.4052 C.2       13 UNK         0.5732 
     20 N         -56.2349  -31.5375   11.2062 N.am      13 UNK        -0.7310 
     21 O         -57.8578  -32.2893    9.9047 O.2       13 UNK        -0.5035 
     22 N         -57.0928  -28.8329   10.8804 N.am      13 UNK        -0.4233 
     23 C         -57.3759  -28.5041   12.1462 C.2       13 UNK         0.4989 
     24 O         -58.2608  -29.0306   12.8245 O.2       13 UNK        -0.4996 
     25 CA        -56.5244  -27.3770   12.7517 C.3       12 UNK         0.0216 
     26 CB        -57.4090  -26.2604   13.3314 C.3       12 UNK        -0.1964 
     27 N         -55.5818  -27.8236   13.7803 N.am      12 UNK        -0.4276 
     28 C         -54.7348  -28.8598   13.7185 C.2       12 UNK         0.5020 
     29 O         -54.6992  -29.6708   12.7921 O.2       12 UNK        -0.5489 
     30 CA        -53.7316  -28.9831   14.8822 C.3       11 UNK         0.0294 
     31 CB        -52.7313  -30.1370   14.6758 C.3       11 UNK        -0.2019 
     32 N         -52.9721  -27.7469   15.0956 N.am      11 UNK        -0.4493 
     33 C         -53.3993  -26.6501   15.7374 C.2       11 UNK         0.4932 
     34 O         -54.5487  -26.5322   16.1656 O.2       11 UNK        -0.5029 
     35 CA        -52.3990  -25.4832   15.9008 C.3       10 UNK         0.0280 
     36 CB        -52.5711  -24.7453   17.2447 C.3       10 UNK        -0.1976 
     37 N         -50.9937  -25.8572   15.6794 N.am      10 UNK        -0.4242 
     38 C         -50.2643  -26.7372   16.3838 C.2       10 UNK         0.5072 
     39 O         -50.6647  -27.3146   17.3952 O.2       10 UNK        -0.5224 
     40 CA        -48.8740  -27.0874   15.8341 C.3       9 UNK         0.0343 
     41 CB        -48.9956  -28.1925   14.7702 C.3       9 UNK        -0.2003 
     42 N         -48.1447  -25.9434   15.2794 N.am      9 UNK        -0.4272 
     43 C         -47.5634  -24.9943   16.0289 C.2       9 UNK         0.4988 
     44 O         -47.6581  -24.9386   17.2557 O.2       9 UNK        -0.5108 
     45 CA        -46.6935  -23.9550   15.2998 C.3       8 UNK         0.0248 
     46 CB        -45.3902  -24.5940   14.7917 C.3       8 UNK        -0.2001 
     47 N         -47.3882  -23.3048   14.1900 N.am      8 UNK        -0.4140 
     48 C         -48.3891  -22.4242   14.3294 C.2       8 UNK         0.5028 
     49 O         -48.7911  -22.0054   15.4157 O.2       8 UNK        -0.5428 
     50 CA        -49.0797  -21.9457   13.0376 C.3       7 UNK         0.0264 
     51 CB        -48.3157  -20.7697   12.4090 C.3       7 UNK        -0.1988 
     52 N         -49.2567  -23.0097   12.0437 N.am      7 UNK        -0.4454 
     53 C         -49.9473  -24.1387   12.2652 C.2       7 UNK         0.5027 
     54 O         -50.5144  -24.4031   13.3254 O.2       7 UNK        -0.5083 
     55 CA        -49.9557  -25.1864   11.1380 C.3       6 UNK         0.0844 
     56 C56       -50.9760  -24.8879   10.0003 C.3       14 UNK        -0.0967 
     57 S57       -52.6129  -24.2284   10.4911 S.3       14 UNK        -0.2604 
     58 C58       -53.3251  -25.5928   11.4654 C.3       14 UNK         0.0134 
     59 N         -48.5925  -25.3939   10.6343 N.am      6 UNK        -0.4116 
     60 C         -47.6007  -25.9522   11.3485 C.2       5 UNK         0.5034 
     61 O         -47.7529  -26.4228   12.4734 O.2       5 UNK        -0.5045 
     62 CA        -46.1880  -25.9407   10.7413 C.3       5 UNK         0.0224 
     63 CB        -45.9415  -27.1846    9.8755 C.3       5 UNK        -0.1978 
     64 N         -45.9235  -24.7298    9.9644 N.am      5 UNK        -0.4737 
     65 C         -45.8059  -23.5111   10.5116 C.2       4 UNK         0.5027 
     66 O         -45.8448  -23.3067   11.7240 O.2       4 UNK        -0.5211 
     67 CA        -45.6793  -22.3136    9.5543 C.3       4 UNK         0.0297 
     68 CB        -44.2003  -21.9865    9.2989 C.3       4 UNK        -0.1993 
     69 N         -46.3641  -22.5104    8.2741 N.am      4 UNK        -0.4486 
     70 C         -47.6721  -22.7623    8.1243 C.2       3 UNK         0.4961 
     71 O         -48.4637  -22.8262    9.0658 O.2       3 UNK        -0.5105 
     72 CA        -48.1776  -23.0113    6.6900 C.3       3 UNK         0.0299 
     73 CB        -47.3138  -22.3166    5.6137 C.3       3 UNK        -0.1972 
     74 N         -48.3388  -24.4336    6.3511 N.am      3 UNK        -0.4305 
     75 C         -47.4480  -25.4265    6.4992 C.2       2 UNK         0.5006 
     76 O         -46.3863  -25.3249    7.1173 O.2       2 UNK        -0.5106 
     77 CA        -47.7801  -26.7544    5.7949 C.3       2 UNK         0.0296 
     78 CB        -46.5770  -27.2639    4.9818 C.3       2 UNK        -0.2002 
     79 N         -48.1929  -27.7967    6.7337 N.am      2 UNK        -0.4032 
     80 C         -49.3854  -27.8444    7.3435 C.2       1 UNK         0.5000 
     81 O         -50.2459  -26.9745    7.2036 O.2       1 UNK        -0.5238 
     82 H82       -47.4775  -32.0980    5.7850 H         1 UNK         0.0889 
     83 H83       -48.6744  -33.1069    6.6019 H         1 UNK         0.0889 
     84 H84       -47.4148  -32.2996    7.5373 H         1 UNK         0.0889 
     85 H85       -48.2057  -30.5195    8.6408 H         1 UNK         0.3028 
     86 H86       -50.7264  -29.3200    8.0618 H         1 UNK         0.0864 
     87 H87       -50.1173  -27.7611    9.9374 H         1 UNK         0.0720 
     88 H88       -48.5076  -28.4102    9.9615 H         1 UNK         0.0720 
     89 H89       -52.2314  -30.9185   11.2655 H         1 UNK         0.0814 
     90 H90       -51.7290  -30.9852    9.5965 H         1 UNK         0.0814 
     91 H91       -51.9210  -27.9039   11.7726 H         1 UNK         0.1469 
     92 H92       -55.0066  -26.1289    9.3872 H         1 UNK         0.1381 
     93 H93       -53.6552  -30.1107    8.5416 H         1 UNK         0.1206 
     94 H94       -56.1737  -27.4118    7.7269 H         1 UNK         0.0813 
     95 H95       -54.8951  -28.1113    6.7690 H         1 UNK         0.0813 
     96 H96       -58.6465  -30.1126    8.1476 H         1 UNK         0.0638 
     97 H97       -58.1658  -28.4844    8.4833 H         1 UNK         0.0638 
     98 H98       -58.8120  -29.8898   10.4649 H         1 UNK         0.0568 
     99 H99       -55.7443  -30.7639   11.6503 H         1 UNK         0.3450 
    100 H100      -55.9332  -32.4815   11.3813 H         1 UNK         0.3450 
    101 H101      -56.2880  -28.4208   10.4291 H         1 UNK         0.2987 
    102 H102      -55.9351  -26.9374   11.9499 H         1 UNK         0.0766 
    103 H103      -58.1202  -25.8985   12.5875 H         1 UNK         0.0798 
    104 H104      -56.8124  -25.4054   13.6504 H         1 UNK         0.0798 
    105 H105      -57.9840  -26.6075   14.1909 H         1 UNK         0.0798 
    106 H106      -55.5106  -27.2414   14.6097 H         1 UNK         0.3198 
    107 H107      -54.3100  -29.1989   15.7832 H         1 UNK         0.0843 
    108 H108      -52.1227  -29.9889   13.7824 H         1 UNK         0.0831 
    109 H109      -53.2513  -31.0889   14.5601 H         1 UNK         0.0831 
    110 H110      -52.0594  -30.2389   15.5282 H         1 UNK         0.0831 
    111 H111      -52.0251  -27.7418   14.7499 H         1 UNK         0.3133 
    112 H112      -52.6422  -24.7747   15.1079 H         1 UNK         0.0566 
    113 H113      -52.4167  -25.4093   18.0956 H         1 UNK         0.0814 
    114 H114      -53.5748  -24.3287   17.3377 H         1 UNK         0.0814 
    115 H115      -51.8687  -23.9164   17.3334 H         1 UNK         0.0814 
    116 H116      -50.5727  -25.4208   14.8598 H         1 UNK         0.3091 
    117 H117      -48.2866  -27.4896   16.6626 H         1 UNK         0.0702 
    118 H118      -48.0145  -28.5148   14.4208 H         1 UNK         0.0785 
    119 H119      -49.5639  -27.8602   13.9003 H         1 UNK         0.0785 
    120 H120      -49.4992  -29.0724   15.1731 H         1 UNK         0.0785 
    121 H121      -48.0030  -25.9440   14.2717 H         1 UNK         0.2998 
    122 H122      -46.4242  -23.1825   16.0234 H         1 UNK         0.0697 
    123 H123      -44.7297  -23.8473   14.3504 H         1 UNK         0.0825 
    124 H124      -45.5793  -25.3576   14.0366 H         1 UNK         0.0825 
    125 H125      -44.8437  -25.0691   15.6074 H         1 UNK         0.0825 
    126 H126      -47.0564  -23.5173   13.2533 H         1 UNK         0.3029 
    127 H127      -50.0767  -21.5949   13.3126 H         1 UNK         0.0897 
    128 H128      -47.2967  -21.0468   12.1401 H         1 UNK         0.0792 
    129 H129      -48.2500  -19.9337   13.1066 H         1 UNK         0.0792 
    130 H130      -48.8138  -20.4043   11.5106 H         1 UNK         0.0792 
    131 H131      -48.8392  -22.8695   11.1292 H         1 UNK         0.3086 
    132 H132      -50.2678  -26.1220   11.6051 H         1 UNK         0.0583 
    133 H133      -50.5592  -24.1614    9.3045 H         1 UNK         0.1020 
    134 H134      -51.1397  -25.7829    9.4010 H         1 UNK         0.1020 
    135 H135      -52.7251  -25.7511   12.3624 H         1 UNK         0.0694 
    136 H136      -54.3113  -25.2865   11.8144 H         1 UNK         0.0694 
    137 H137      -48.3626  -24.9410    9.7598 H         1 UNK         0.2989 
    138 H138      -45.4785  -25.9671   11.5715 H         1 UNK         0.1055 
    139 H139      -46.0878  -28.0978   10.4541 H         1 UNK         0.0806 
    140 H140      -44.9206  -27.2043    9.4939 H         1 UNK         0.0806 
    141 H141      -46.6154  -27.2232    9.0213 H         1 UNK         0.0806 
    142 H142      -45.9134  -24.8215    8.9508 H         1 UNK         0.3061 
    143 H143      -46.1410  -21.4534   10.0422 H         1 UNK         0.0734 
    144 H144      -43.6892  -22.8014    8.7845 H         1 UNK         0.0832 
    145 H145      -44.0899  -21.0848    8.6963 H         1 UNK         0.0832 
    146 H146      -43.6726  -21.8125   10.2380 H         1 UNK         0.0832 
    147 H147      -45.7857  -22.5190    7.4466 H         1 UNK         0.3156 
    148 H148      -49.1740  -22.5693    6.6434 H         1 UNK         0.0589 
    149 H149      -47.7982  -22.3626    4.6382 H         1 UNK         0.0808 
    150 H150      -46.3304  -22.7767    5.5093 H         1 UNK         0.0808 
    151 H151      -47.1664  -21.2604    5.8443 H         1 UNK         0.0808 
    152 H152      -49.2133  -24.6659    5.8997 H         1 UNK         0.3098 
    153 H153      -48.5989  -26.5823    5.0927 H         1 UNK         0.0720 
    154 H154      -45.7272  -27.5061    5.6216 H         1 UNK         0.0791 
    155 H155      -46.2417  -26.5100    4.2681 H         1 UNK         0.0791 
    156 H156      -46.8330  -28.1572    4.4117 H         1 UNK         0.0791 
    157 H157      -47.5333  -28.5401    6.9083 H         1 UNK         0.3028 
@<TRIPOS>BOND
     1    1    2 1    
     2    1   82 1    
     3    1   83 1    
     4    1   84 1    
     5    2    3 2    
     6    2    4 am   BACKBONE|DICT|INTERRES
     7    4    5 1    
     8    4   85 1    
     9    5    6 1    
    10    5   80 1    
    11    5   86 1    
    12    6    7 1    
    13    6   87 1    
    14    6   88 1    
    15    7    8 1    
    16    8    9 1    
    17    8   89 1    
    18    8   90 1    
    19    9   10 ar   
    20    9   14 ar   
    21   10   11 ar   
    22   10   91 1    
    23   11   12 ar   
    24   11   58 1    
    25   12   13 ar   
    26   12   92 1    
    27   13   14 ar   
    28   13   15 1    
    29   14   93 1    
    30   15   16 1    
    31   15   94 1    
    32   15   95 1    
    33   16   17 1    
    34   17   18 1    
    35   17   96 1    
    36   17   97 1    
    37   18   19 1    
    38   18   22 1    
    39   18   98 1    
    40   19   20 am   BACKBONE|DICT|INTERRES
    41   19   21 2    
    42   20   99 1    
    43   20  100 1    
    44   22   23 am   BACKBONE|DICT|INTERRES
    45   22  101 1    
    46   23   24 2    
    47   23   25 1    
    48   25   26 1    
    49   25   27 1    
    50   25  102 1    
    51   26  103 1    
    52   26  104 1    
    53   26  105 1    
    54   27   28 am   BACKBONE|DICT|INTERRES
    55   27  106 1    
    56   28   29 2    
    57   28   30 1    
    58   30   31 1    
    59   30   32 1    
    60   30  107 1    
    61   31  108 1    
    62   31  109 1    
    63   31  110 1    
    64   32   33 am   BACKBONE|DICT|INTERRES
    65   32  111 1    
    66   33   34 2    
    67   33   35 1    
    68   35   36 1    
    69   35   37 1    
    70   35  112 1    
    71   36  113 1    
    72   36  114 1    
    73   36  115 1    
    74   37   38 am   BACKBONE|DICT|INTERRES
    75   37  116 1    
    76   38   39 2    
    77   38   40 1    
    78   40   41 1    
    79   40   42 1    
    80   40  117 1    
    81   41  118 1    
    82   41  119 1    
    83   41  120 1    
    84   42   43 am   BACKBONE|DICT|INTERRES
    85   42  121 1    
    86   43   44 2    
    87   43   45 1    
    88   45   46 1    
    89   45   47 1    
    90   45  122 1    
    91   46  123 1    
    92   46  124 1    
    93   46  125 1    
    94   47   48 am   BACKBONE|DICT|INTERRES
    95   47  126 1    
    96   48   49 2    
    97   48   50 1    
    98   50   51 1    
    99   50   52 1    
   100   50  127 1    
   101   51  128 1    
   102   51  129 1    
   103   51  130 1    
   104   52   53 am   BACKBONE|DICT|INTERRES
   105   52  131 1    
   106   53   54 2    
   107   53   55 1    
   108   55   56 1    
   109   55   59 1    
   110   55  132 1    
   111   56   57 1    
   112   56  133 1    
   113   56  134 1    
   114   57   58 1    
   115   58  135 1    
   116   58  136 1    
   117   59   60 am   BACKBONE|DICT|INTERRES
   118   59  137 1    
   119   60   61 2    
   120   60   62 1    
   121   62   63 1    
   122   62   64 1    
   123   62  138 1    
   124   63  139 1    
   125   63  140 1    
   126   63  141 1    
   127   64   65 am   BACKBONE|DICT|INTERRES
   128   64  142 1    
   129   65   66 2    
   130   65   67 1    
   131   67   68 1    
   132   67   69 1    
   133   67  143 1    
   134   68  144 1    
   135   68  145 1    
   136   68  146 1    
   137   69   70 am   BACKBONE|DICT|INTERRES
   138   69  147 1    
   139   70   71 2    
   140   70   72 1    
   141   72   73 1    
   142   72   74 1    
   143   72  148 1    
   144   73  149 1    
   145   73  150 1    
   146   73  151 1    
   147   74   75 am   BACKBONE|DICT|INTERRES
   148   74  152 1    
   149   75   76 2    
   150   75   77 1    
   151   77   78 1    
   152   77   79 1    
   153   77  153 1    
   154   78  154 1    
   155   78  155 1    
   156   78  156 1    
   157   79   80 am   BACKBONE|DICT|INTERRES
   158   79  157 1    
   159   80   81 2    
@<TRIPOS>SUBSTRUCTURE
     1 UNK         1 GROUP             0       ****    0 ROOT    
