@<TRIPOS>MOLECULE
3R207
157   159    1
SMALL
USER_CHARGES


@<TRIPOS>ATOM
      1 CA        -45.3363  -31.0862    3.7113 C.3       0 UNK        -0.1975 
      2 C         -46.5924  -30.2287    3.7561 C.2       0 UNK         0.4852 
      3 O         -46.9749  -29.6531    2.7368 O.2       0 UNK        -0.5216 
      4 N         -47.2367  -30.1440    4.9288 N.am      1 UNK        -0.4461 
      5 CA        -48.4464  -29.3474    5.1719 C.3       1 UNK         0.0864 
      6 C6        -49.0926  -29.7318    6.5261 C.3       14 UNK        -0.0898 
      7 S7        -50.8099  -29.1503    6.6881 S.3       14 UNK        -0.2598 
      8 C8        -51.2615  -29.9114    8.2743 C.3       14 UNK         0.0286 
      9 C9        -52.4947  -29.2410    8.8538 C.ar      14 UNK        -0.0844 
     10 C10       -52.3546  -28.1003    9.6476 C.ar      14 UNK        -0.0881 
     11 C11       -53.4766  -27.4498   10.1695 C.ar      14 UNK        -0.0643 
     12 C12       -54.7463  -27.9737    9.9102 C.ar      14 UNK        -0.0930 
     13 C13       -54.8983  -29.1410    9.1545 C.ar      14 UNK        -0.0827 
     14 C14       -53.7691  -29.7568    8.6059 C.ar      14 UNK        -0.1249 
     15 C15       -56.2820  -29.7464    8.9565 C.3       14 UNK         0.0141 
     16 S16       -56.4471  -31.4493    9.6097 S.3       14 UNK        -0.2313 
     17 C17       -55.4865  -31.4686   11.1686 C.3       14 UNK        -0.0915 
     18 CA        -56.2779  -30.9832   12.4092 C.3       13 UNK         0.0968 
     19 C         -55.4742  -31.2659   13.7128 C.2       13 UNK         0.5732 
     20 N         -54.9337  -30.2639   14.3990 N.am      13 UNK        -0.7310 
     21 O         -55.3456  -32.4209   14.1119 O.2       13 UNK        -0.5035 
     22 N         -56.6856  -29.5802   12.2695 N.am      13 UNK        -0.4233 
     23 C         -57.6795  -29.0098   12.9562 C.2       13 UNK         0.4989 
     24 O         -58.4450  -29.6181   13.7070 O.2       13 UNK        -0.4996 
     25 CA        -57.8103  -27.4850   12.8132 C.3       12 UNK         0.0216 
     26 CB        -59.2686  -27.0636   12.5616 C.3       12 UNK        -0.1964 
     27 N         -57.3071  -26.8130   14.0116 N.am      12 UNK        -0.4276 
     28 C         -56.0303  -26.8185   14.4144 C.2       12 UNK         0.5020 
     29 O         -55.1080  -27.3554   13.7925 O.2       12 UNK        -0.5489 
     30 CA        -55.7401  -26.1484   15.7579 C.3       11 UNK         0.0294 
     31 CB        -55.9000  -27.1562   16.9113 C.3       11 UNK        -0.2019 
     32 N         -54.3778  -25.6269   15.7331 N.am      11 UNK        -0.4493 
     33 C         -53.9143  -24.6426   16.5114 C.2       11 UNK         0.4932 
     34 O         -54.6076  -24.0657   17.3517 O.2       11 UNK        -0.5029 
     35 CA        -52.4472  -24.2087   16.3112 C.3       10 UNK         0.0280 
     36 CB        -51.8370  -23.5903   17.5874 C.3       10 UNK        -0.1976 
     37 N         -51.5671  -25.2545   15.7765 N.am      10 UNK        -0.4242 
     38 C         -51.2557  -26.4331   16.3379 C.2       10 UNK         0.5072 
     39 O         -51.7419  -26.8560   17.3876 O.2       10 UNK        -0.5224 
     40 CA        -50.1919  -27.2729   15.6090 C.3       9 UNK         0.0343 
     41 CB        -50.7999  -27.9941   14.3938 C.3       9 UNK        -0.2003 
     42 N         -49.0358  -26.4728   15.1897 N.am      9 UNK        -0.4272 
     43 C         -48.1750  -25.8779   16.0311 C.2       9 UNK         0.4988 
     44 O         -48.2126  -26.0070   17.2554 O.2       9 UNK        -0.5108 
     45 CA        -47.0904  -24.9790   15.4106 C.3       8 UNK         0.0248 
     46 CB        -45.8971  -25.8160   14.9226 C.3       8 UNK        -0.2001 
     47 N         -47.6003  -24.1467   14.3179 N.am      8 UNK        -0.4140 
     48 C         -48.4685  -23.1365   14.4784 C.2       8 UNK         0.5028 
     49 O         -48.8596  -22.7375   15.5751 O.2       8 UNK        -0.5428 
     50 CA        -49.0161  -22.4675   13.2046 C.3       7 UNK         0.0264 
     51 CB        -48.0741  -21.3511   12.7279 C.3       7 UNK        -0.1988 
     52 N         -49.2588  -23.4127   12.1107 N.am      7 UNK        -0.4454 
     53 C         -50.1408  -24.4219   12.1614 C.2       7 UNK         0.5027 
     54 O         -50.8749  -24.6322   13.1274 O.2       7 UNK        -0.5083 
     55 CA        -50.1614  -25.4075   10.9734 C.3       6 UNK         0.0844 
     56 C56       -51.0312  -24.9141    9.7887 C.3       14 UNK        -0.0967 
     57 S57       -52.8256  -24.7229   10.1152 S.3       14 UNK        -0.2604 
     58 C58       -53.3298  -26.2115   11.0475 C.3       14 UNK         0.0134 
     59 N         -48.8105  -25.7765   10.5451 N.am      6 UNK        -0.4116 
     60 C         -47.9417  -26.4560   11.3081 C.2       5 UNK         0.5034 
     61 O         -48.2113  -26.9012   12.4231 O.2       5 UNK        -0.5045 
     62 CA        -46.5149  -26.6128   10.7629 C.3       5 UNK         0.0224 
     63 CB        -46.4149  -27.8097    9.8025 C.3       5 UNK        -0.1978 
     64 N         -46.0519  -25.3889   10.1035 N.am      5 UNK        -0.4737 
     65 C         -45.7659  -24.2528   10.7568 C.2       4 UNK         0.5027 
     66 O         -45.8109  -24.1436   11.9811 O.2       4 UNK        -0.5211 
     67 CA        -45.4118  -23.0226    9.9037 C.3       4 UNK         0.0297 
     68 CB        -43.9135  -23.0186    9.5631 C.3       4 UNK        -0.1993 
     69 N         -46.1959  -22.9383    8.6693 N.am      4 UNK        -0.4486 
     70 C         -47.5257  -22.7710    8.6171 C.2       3 UNK         0.4961 
     71 O         -48.2363  -22.6134    9.6080 O.2       3 UNK        -0.5105 
     72 CA        -48.1816  -22.8605    7.2280 C.3       3 UNK         0.0299 
     73 CB        -48.1920  -21.4841    6.5453 C.3       3 UNK        -0.1972 
     74 N         -47.5342  -23.8447    6.3532 N.am      3 UNK        -0.4305 
     75 C         -47.4566  -25.1559    6.6191 C.2       2 UNK         0.5006 
     76 O         -47.9493  -25.6809    7.6214 O.2       2 UNK        -0.5106 
     77 CA        -46.6035  -25.9925    5.6516 C.3       2 UNK         0.0296 
     78 CB        -45.1243  -25.9376    6.0705 C.3       2 UNK        -0.2002 
     79 N         -47.0267  -27.3916    5.6094 N.am      2 UNK        -0.4032 
     80 C         -48.1747  -27.8285    5.0722 C.2       1 UNK         0.5000 
     81 O         -48.9793  -27.0978    4.4893 O.2       1 UNK        -0.5238 
     82 H82       -45.1172  -31.5415    4.6769 H         1 UNK         0.0889 
     83 H83       -44.4788  -30.4801    3.4201 H         1 UNK         0.0889 
     84 H84       -45.4535  -31.8848    2.9793 H         1 UNK         0.0889 
     85 H85       -46.8789  -30.6560    5.7229 H         1 UNK         0.3028 
     86 H86       -49.1534  -29.5994    4.3780 H         1 UNK         0.0864 
     87 H87       -48.5046  -29.3528    7.3646 H         1 UNK         0.0720 
     88 H88       -49.1099  -30.8180    6.6319 H         1 UNK         0.0720 
     89 H89       -50.4308  -29.8244    8.9768 H         1 UNK         0.0814 
     90 H90       -51.4351  -30.9791    8.1306 H         1 UNK         0.0814 
     91 H91       -51.3640  -27.7220    9.8422 H         1 UNK         0.1469 
     92 H92       -55.6162  -27.4748   10.3110 H         1 UNK         0.1381 
     93 H93       -53.8826  -30.6507    8.0077 H         1 UNK         0.1206 
     94 H94       -57.0469  -29.1237    9.4225 H         1 UNK         0.0813 
     95 H95       -56.5140  -29.7575    7.8907 H         1 UNK         0.0813 
     96 H96       -54.5587  -30.9070   11.0596 H         1 UNK         0.0638 
     97 H97       -55.1760  -32.5051   11.3136 H         1 UNK         0.0638 
     98 H98       -57.1844  -31.5880   12.4760 H         1 UNK         0.0568 
     99 H99       -54.4202  -30.4707   15.2398 H         1 UNK         0.3450 
    100 H100      -55.0147  -29.3044   14.0785 H         1 UNK         0.3450 
    101 H101      -56.0569  -28.9985   11.7372 H         1 UNK         0.2987 
    102 H102      -57.2156  -27.1510   11.9616 H         1 UNK         0.0766 
    103 H103      -59.6669  -27.5542   11.6724 H         1 UNK         0.0798 
    104 H104      -59.3490  -25.9885   12.4001 H         1 UNK         0.0798 
    105 H105      -59.9190  -27.3269   13.3969 H         1 UNK         0.0798 
    106 H106      -58.0007  -26.3843   14.6079 H         1 UNK         0.3198 
    107 H107      -56.4392  -25.3199   15.8931 H         1 UNK         0.0843 
    108 H108      -55.7314  -26.6843   17.8793 H         1 UNK         0.0831 
    109 H109      -55.1975  -27.9855   16.8180 H         1 UNK         0.0831 
    110 H110      -56.9052  -27.5794   16.9288 H         1 UNK         0.0831 
    111 H111      -53.7800  -26.0445   15.0303 H         1 UNK         0.3133 
    112 H112      -52.4686  -23.4287   15.5489 H         1 UNK         0.0566 
    113 H113      -50.8052  -23.2799   17.4234 H         1 UNK         0.0814 
    114 H114      -51.8458  -24.2940   18.4204 H         1 UNK         0.0814 
    115 H115      -52.3927  -22.7061   17.9016 H         1 UNK         0.0814 
    116 H116      -51.1535  -25.0398   14.8691 H         1 UNK         0.3091 
    117 H117      -49.8335  -28.0325   16.3068 H         1 UNK         0.0702 
    118 H118      -50.0714  -28.6518   13.9191 H         1 UNK         0.0785 
    119 H119      -51.1537  -27.2919   13.6397 H         1 UNK         0.0785 
    120 H120      -51.6506  -28.6098   14.6894 H         1 UNK         0.0785 
    121 H121      -48.8819  -26.3794   14.1900 H         1 UNK         0.2998 
    122 H122      -46.7295  -24.3096   16.1944 H         1 UNK         0.0697 
    123 H123      -46.1827  -26.5092   14.1318 H         1 UNK         0.0825 
    124 H124      -45.4775  -26.4073   15.7375 H         1 UNK         0.0825 
    125 H125      -45.0985  -25.1812   14.5381 H         1 UNK         0.0825 
    126 H126      -47.2504  -24.3464   13.3861 H         1 UNK         0.3029 
    127 H127      -49.9761  -22.0145   13.4620 H         1 UNK         0.0897 
    128 H128      -47.0946  -21.7408   12.4510 H         1 UNK         0.0792 
    129 H129      -47.9199  -20.6097   13.5131 H         1 UNK         0.0792 
    130 H130      -48.4832  -20.8281   11.8633 H         1 UNK         0.0792 
    131 H131      -48.7389  -23.2570   11.2485 H         1 UNK         0.3086 
    132 H132      -50.5873  -26.3325   11.3556 H         1 UNK         0.0583 
    133 H133      -50.6568  -23.9549    9.4268 H         1 UNK         0.1020 
    134 H134      -50.9257  -25.5955    8.9428 H         1 UNK         0.1020 
    135 H135      -52.6647  -26.4129   11.8846 H         1 UNK         0.0694 
    136 H136      -54.2893  -25.9818   11.5131 H         1 UNK         0.0694 
    137 H137      -48.5140  -25.4795    9.6215 H         1 UNK         0.2989 
    138 H138      -45.8572  -26.8080   11.6131 H         1 UNK         0.1055 
    139 H139      -46.6877  -28.7353   10.3112 H         1 UNK         0.0806 
    140 H140      -47.0790  -27.7078    8.9448 H         1 UNK         0.0806 
    141 H141      -45.3988  -27.9349    9.4284 H         1 UNK         0.0806 
    142 H142      -46.0531  -25.3839    9.0940 H         1 UNK         0.3061 
    143 H143      -45.6291  -22.1330   10.4984 H         1 UNK         0.0734 
    144 H144      -43.6342  -23.8736    8.9460 H         1 UNK         0.0832 
    145 H145      -43.6293  -22.1110    9.0302 H         1 UNK         0.0832 
    146 H146      -43.3089  -23.0612   10.4704 H         1 UNK         0.0832 
    147 H147      -45.6945  -23.0477    7.8004 H         1 UNK         0.3156 
    148 H148      -49.2167  -23.1771    7.3725 H         1 UNK         0.0589 
    149 H149      -48.7312  -21.5144    5.5983 H         1 UNK         0.0808 
    150 H150      -48.6875  -20.7422    7.1736 H         1 UNK         0.0808 
    151 H151      -47.1829  -21.1205    6.3469 H         1 UNK         0.0808 
    152 H152      -47.0993  -23.4900    5.5130 H         1 UNK         0.3098 
    153 H153      -46.7024  -25.5765    4.6466 H         1 UNK         0.0720 
    154 H154      -44.9693  -26.3511    7.0681 H         1 UNK         0.0791 
    155 H155      -44.7532  -24.9120    6.0804 H         1 UNK         0.0791 
    156 H156      -44.4961  -26.4967    5.3765 H         1 UNK         0.0791 
    157 H157      -46.4292  -28.0611    6.0699 H         1 UNK         0.3028 
@<TRIPOS>BOND
     1    1    2 1    
     2    1   82 1    
     3    1   83 1    
     4    1   84 1    
     5    2    3 2    
     6    2    4 am   BACKBONE|DICT|INTERRES
     7    4    5 1    
     8    4   85 1    
     9    5    6 1    
    10    5   80 1    
    11    5   86 1    
    12    6    7 1    
    13    6   87 1    
    14    6   88 1    
    15    7    8 1    
    16    8    9 1    
    17    8   89 1    
    18    8   90 1    
    19    9   10 ar   
    20    9   14 ar   
    21   10   11 ar   
    22   10   91 1    
    23   11   12 ar   
    24   11   58 1    
    25   12   13 ar   
    26   12   92 1    
    27   13   14 ar   
    28   13   15 1    
    29   14   93 1    
    30   15   16 1    
    31   15   94 1    
    32   15   95 1    
    33   16   17 1    
    34   17   18 1    
    35   17   96 1    
    36   17   97 1    
    37   18   19 1    
    38   18   22 1    
    39   18   98 1    
    40   19   20 am   BACKBONE|DICT|INTERRES
    41   19   21 2    
    42   20   99 1    
    43   20  100 1    
    44   22   23 am   BACKBONE|DICT|INTERRES
    45   22  101 1    
    46   23   24 2    
    47   23   25 1    
    48   25   26 1    
    49   25   27 1    
    50   25  102 1    
    51   26  103 1    
    52   26  104 1    
    53   26  105 1    
    54   27   28 am   BACKBONE|DICT|INTERRES
    55   27  106 1    
    56   28   29 2    
    57   28   30 1    
    58   30   31 1    
    59   30   32 1    
    60   30  107 1    
    61   31  108 1    
    62   31  109 1    
    63   31  110 1    
    64   32   33 am   BACKBONE|DICT|INTERRES
    65   32  111 1    
    66   33   34 2    
    67   33   35 1    
    68   35   36 1    
    69   35   37 1    
    70   35  112 1    
    71   36  113 1    
    72   36  114 1    
    73   36  115 1    
    74   37   38 am   BACKBONE|DICT|INTERRES
    75   37  116 1    
    76   38   39 2    
    77   38   40 1    
    78   40   41 1    
    79   40   42 1    
    80   40  117 1    
    81   41  118 1    
    82   41  119 1    
    83   41  120 1    
    84   42   43 am   BACKBONE|DICT|INTERRES
    85   42  121 1    
    86   43   44 2    
    87   43   45 1    
    88   45   46 1    
    89   45   47 1    
    90   45  122 1    
    91   46  123 1    
    92   46  124 1    
    93   46  125 1    
    94   47   48 am   BACKBONE|DICT|INTERRES
    95   47  126 1    
    96   48   49 2    
    97   48   50 1    
    98   50   51 1    
    99   50   52 1    
   100   50  127 1    
   101   51  128 1    
   102   51  129 1    
   103   51  130 1    
   104   52   53 am   BACKBONE|DICT|INTERRES
   105   52  131 1    
   106   53   54 2    
   107   53   55 1    
   108   55   56 1    
   109   55   59 1    
   110   55  132 1    
   111   56   57 1    
   112   56  133 1    
   113   56  134 1    
   114   57   58 1    
   115   58  135 1    
   116   58  136 1    
   117   59   60 am   BACKBONE|DICT|INTERRES
   118   59  137 1    
   119   60   61 2    
   120   60   62 1    
   121   62   63 1    
   122   62   64 1    
   123   62  138 1    
   124   63  139 1    
   125   63  140 1    
   126   63  141 1    
   127   64   65 am   BACKBONE|DICT|INTERRES
   128   64  142 1    
   129   65   66 2    
   130   65   67 1    
   131   67   68 1    
   132   67   69 1    
   133   67  143 1    
   134   68  144 1    
   135   68  145 1    
   136   68  146 1    
   137   69   70 am   BACKBONE|DICT|INTERRES
   138   69  147 1    
   139   70   71 2    
   140   70   72 1    
   141   72   73 1    
   142   72   74 1    
   143   72  148 1    
   144   73  149 1    
   145   73  150 1    
   146   73  151 1    
   147   74   75 am   BACKBONE|DICT|INTERRES
   148   74  152 1    
   149   75   76 2    
   150   75   77 1    
   151   77   78 1    
   152   77   79 1    
   153   77  153 1    
   154   78  154 1    
   155   78  155 1    
   156   78  156 1    
   157   79   80 am   BACKBONE|DICT|INTERRES
   158   79  157 1    
   159   80   81 2    
@<TRIPOS>SUBSTRUCTURE
     1 UNK         1 GROUP             0       ****    0 ROOT    
