@<TRIPOS>MOLECULE
3R207
157   159    1
SMALL
USER_CHARGES


@<TRIPOS>ATOM
      1 CA        -44.4262  -24.9933    9.9045 C.3       0 UNK        -0.1975 
      2 C         -44.6324  -25.9314    8.7247 C.2       0 UNK         0.4852 
      3 O         -43.7977  -25.9519    7.8200 O.2       0 UNK        -0.5216 
      4 N         -45.7292  -26.7041    8.7414 N.am      1 UNK        -0.4461 
      5 CA        -46.0969  -27.7772    7.8048 C.3       1 UNK         0.0864 
      6 C6        -47.5027  -28.3378    8.1314 C.3       14 UNK        -0.0898 
      7 S7        -47.5817  -29.0918    9.7904 S.3       14 UNK        -0.2598 
      8 C8        -48.6914  -30.5062    9.5000 C.3       14 UNK         0.0286 
      9 C9        -50.1493  -30.0742    9.4219 C.ar      14 UNK        -0.0844 
     10 C10       -50.6794  -29.5808    8.2256 C.ar      14 UNK        -0.0881 
     11 C11       -52.0160  -29.1810    8.1507 C.ar      14 UNK        -0.0643 
     12 C12       -52.8350  -29.3059    9.2776 C.ar      14 UNK        -0.0930 
     13 C13       -52.3197  -29.8073   10.4764 C.ar      14 UNK        -0.0827 
     14 C14       -50.9753  -30.1830   10.5449 C.ar      14 UNK        -0.1249 
     15 C15       -53.2210  -29.9610   11.6905 C.3       14 UNK         0.0141 
     16 S16       -53.4142  -28.3819   12.5718 S.3       14 UNK        -0.2313 
     17 C17       -55.2304  -28.2383   12.6424 C.3       14 UNK        -0.0915 
     18 CA        -55.7115  -26.8147   13.0247 C.3       13 UNK         0.0968 
     19 C         -57.2580  -26.7226   12.9374 C.2       13 UNK         0.5732 
     20 N         -57.7899  -26.1951   11.8433 N.am      13 UNK        -0.7310 
     21 O         -57.9753  -27.1700   13.8302 O.2       13 UNK        -0.5035 
     22 N         -55.2061  -26.4084   14.3424 N.am      13 UNK        -0.4233 
     23 C         -55.2764  -25.1694   14.8470 C.2       13 UNK         0.4989 
     24 O         -55.7390  -24.2029   14.2388 O.2       13 UNK        -0.4996 
     25 CA        -54.7023  -24.9906   16.2646 C.3       12 UNK         0.0216 
     26 CB        -55.0155  -23.6134   16.8886 C.3       12 UNK        -0.1964 
     27 N         -55.0848  -26.0921   17.1565 N.am      12 UNK        -0.4276 
     28 C         -56.3188  -26.4132   17.5813 C.2       12 UNK         0.5020 
     29 O         -57.3227  -25.7436   17.3353 O.2       12 UNK        -0.5489 
     30 CA        -56.4867  -27.7132   18.3979 C.3       11 UNK         0.0294 
     31 CB        -57.3191  -28.7363   17.6050 C.3       11 UNK        -0.2019 
     32 N         -55.2215  -28.3432   18.7832 N.am      11 UNK        -0.4493 
     33 C         -54.3917  -27.8998   19.7374 C.2       11 UNK         0.4932 
     34 O         -54.6509  -26.9564   20.4843 O.2       11 UNK        -0.5029 
     35 CA        -53.0247  -28.6047   19.8561 C.3       10 UNK         0.0280 
     36 CB        -53.0473  -29.6226   21.0079 C.3       10 UNK        -0.1976 
     37 N         -52.5650  -29.2731   18.6285 N.am      10 UNK        -0.4242 
     38 C         -52.3648  -28.6757   17.4448 C.2       10 UNK         0.5072 
     39 O         -52.6046  -27.4858   17.2293 O.2       10 UNK        -0.5224 
     40 CA        -51.9034  -29.5798   16.2915 C.3       9 UNK         0.0343 
     41 CB        -53.1116  -30.2942   15.6633 C.3       9 UNK        -0.2003 
     42 N         -51.2046  -28.8109   15.2582 N.am      9 UNK        -0.4272 
     43 C         -49.9537  -28.3455   15.3855 C.2       9 UNK         0.4988 
     44 O         -49.2343  -28.5826   16.3574 O.2       9 UNK        -0.5108 
     45 CA        -49.3906  -27.4889   14.2383 C.3       8 UNK         0.0248 
     46 CB        -48.5608  -28.3535   13.2770 C.3       8 UNK        -0.2001 
     47 N         -50.4142  -26.7723   13.4740 N.am      8 UNK        -0.4140 
     48 C         -51.0207  -25.6472   13.8807 C.2       8 UNK         0.5028 
     49 O         -50.8122  -25.1189   14.9733 O.2       8 UNK        -0.5428 
     50 CA        -51.9923  -24.9852   12.8874 C.3       7 UNK         0.0264 
     51 CB        -52.1404  -23.4666   13.1060 C.3       7 UNK        -0.1988 
     52 N         -51.5915  -25.2604   11.5083 N.am      7 UNK        -0.4454 
     53 C         -52.4110  -25.3621   10.4567 C.2       7 UNK         0.5027 
     54 O         -53.6248  -25.1589   10.5148 O.2       7 UNK        -0.5083 
     55 CA        -51.7485  -25.7397    9.1132 C.3       6 UNK         0.0844 
     56 C56       -52.7902  -26.0466    8.0061 C.3       14 UNK        -0.0967 
     57 S57       -52.0280  -26.8893    6.5787 S.3       14 UNK        -0.2604 
     58 C58       -52.5679  -28.6100    6.8513 C.3       14 UNK         0.0134 
     59 N         -50.7995  -24.7088    8.6818 N.am      6 UNK        -0.4116 
     60 C         -49.5951  -24.4673    9.2116 C.2       5 UNK         0.5034 
     61 O         -49.1027  -25.1327   10.1261 O.2       5 UNK        -0.5045 
     62 CA        -48.8166  -23.2899    8.6015 C.3       5 UNK         0.0224 
     63 CB        -47.5646  -22.9210    9.4147 C.3       5 UNK        -0.1978 
     64 N         -48.4160  -23.6022    7.2319 N.am      5 UNK        -0.4737 
     65 C         -49.1912  -23.4749    6.1478 C.2       4 UNK         0.5027 
     66 O         -50.3442  -23.0423    6.1921 O.2       4 UNK        -0.5211 
     67 CA        -48.5938  -23.9444    4.8088 C.3       4 UNK         0.0297 
     68 CB        -49.0954  -23.1246    3.6012 C.3       4 UNK        -0.1993 
     69 N         -47.1284  -24.0548    4.8416 N.am      4 UNK        -0.4486 
     70 C         -46.2135  -23.0707    4.8479 C.2       3 UNK         0.4961 
     71 O         -46.4960  -21.8757    4.7606 O.2       3 UNK        -0.5105 
     72 CA        -44.7271  -23.4657    5.0141 C.3       3 UNK         0.0299 
     73 CB        -44.1461  -22.8369    6.2924 C.3       3 UNK        -0.1972 
     74 N         -44.4896  -24.9127    5.0552 N.am      3 UNK        -0.4305 
     75 C         -44.5958  -25.7443    4.0077 C.2       2 UNK         0.5006 
     76 O         -44.7744  -25.3621    2.8510 O.2       2 UNK        -0.5106 
     77 CA        -44.5480  -27.2591    4.2947 C.3       2 UNK         0.0296 
     78 CB        -43.1661  -27.8287    3.9349 C.3       2 UNK        -0.2002 
     79 N         -44.8773  -27.6345    5.6762 N.am      2 UNK        -0.4032 
     80 C         -46.0171  -27.3473    6.3248 C.2       1 UNK         0.5000 
     81 O         -46.9571  -26.7338    5.8155 O.2       1 UNK        -0.5238 
     82 H82       -44.4020  -23.9579    9.5667 H         1 UNK         0.0889 
     83 H83       -43.4752  -25.2117   10.3895 H         1 UNK         0.0889 
     84 H84       -45.2139  -25.0945   10.6510 H         1 UNK         0.0889 
     85 H85       -46.3710  -26.6087    9.5164 H         1 UNK         0.3028 
     86 H86       -45.3765  -28.5847    7.9509 H         1 UNK         0.0864 
     87 H87       -47.7773  -29.0911    7.3914 H         1 UNK         0.0720 
     88 H88       -48.2616  -27.5541    8.0724 H         1 UNK         0.0720 
     89 H89       -48.5593  -31.2207   10.3139 H         1 UNK         0.0814 
     90 H90       -48.4013  -31.0338    8.5903 H         1 UNK         0.0814 
     91 H91       -50.0523  -29.4926    7.3501 H         1 UNK         0.1469 
     92 H92       -53.8734  -29.0083    9.2270 H         1 UNK         0.1381 
     93 H93       -50.5745  -30.5726   11.4705 H         1 UNK         0.1206 
     94 H94       -52.8096  -30.7009   12.3781 H         1 UNK         0.0813 
     95 H95       -54.1897  -30.3522   11.3769 H         1 UNK         0.0813 
     96 H96       -55.6108  -28.9797   13.3477 H         1 UNK         0.0638 
     97 H97       -55.6275  -28.5091   11.6621 H         1 UNK         0.0638 
     98 H98       -55.2963  -26.1160   12.2973 H         1 UNK         0.0568 
     99 H99       -58.7931  -26.1434   11.7622 H         1 UNK         0.3450 
    100 H100      -57.2071  -25.8332   11.1045 H         1 UNK         0.3450 
    101 H101      -54.8294  -27.1450   14.9172 H         1 UNK         0.2987 
    102 H102      -53.6180  -25.0557   16.1573 H         1 UNK         0.0766 
    103 H103      -56.0881  -23.4326   16.9628 H         1 UNK         0.0798 
    104 H104      -54.5937  -22.8091   16.2846 H         1 UNK         0.0798 
    105 H105      -54.5894  -23.5252   17.8879 H         1 UNK         0.0798 
    106 H106      -54.3123  -26.7060   17.4081 H         1 UNK         0.3198 
    107 H107      -57.0339  -27.4549   19.3073 H         1 UNK         0.0843 
    108 H108      -56.8262  -29.0266   16.6762 H         1 UNK         0.0831 
    109 H109      -58.2933  -28.3242   17.3374 H         1 UNK         0.0831 
    110 H110      -57.5024  -29.6392   18.1878 H         1 UNK         0.0831 
    111 H111      -54.9279  -29.1395   18.2370 H         1 UNK         0.3133 
    112 H112      -52.2892  -27.8346   20.0975 H         1 UNK         0.0566 
    113 H113      -53.7425  -30.4399   20.8116 H         1 UNK         0.0814 
    114 H114      -53.3567  -29.1499   21.9414 H         1 UNK         0.0814 
    115 H115      -52.0603  -30.0529   21.1790 H         1 UNK         0.0814 
    116 H116      -52.3633  -30.2601   18.7073 H         1 UNK         0.3091 
    117 H117      -51.2185  -30.3330   16.6872 H         1 UNK         0.0702 
    118 H118      -52.8077  -30.9286   14.8310 H         1 UNK         0.0785 
    119 H119      -53.8556  -29.5875   15.2949 H         1 UNK         0.0785 
    120 H120      -53.6089  -30.9384   16.3894 H         1 UNK         0.0785 
    121 H121      -51.7415  -28.5440   14.4456 H         1 UNK         0.2998 
    122 H122      -48.7206  -26.7510   14.6853 H         1 UNK         0.0697 
    123 H123      -48.0811  -27.7426   12.5119 H         1 UNK         0.0825 
    124 H124      -49.1720  -29.1024   12.7735 H         1 UNK         0.0825 
    125 H125      -47.7693  -28.8830   13.8091 H         1 UNK         0.0825 
    126 H126      -50.6665  -27.1604   12.5762 H         1 UNK         0.3029 
    127 H127      -52.9623  -25.4488   13.0609 H         1 UNK         0.0897 
    128 H128      -51.1931  -22.9469   12.9587 H         1 UNK         0.0792 
    129 H129      -52.4845  -23.2461   14.1174 H         1 UNK         0.0792 
    130 H130      -52.8712  -23.0366   12.4209 H         1 UNK         0.0792 
    131 H131      -50.5937  -25.3668   11.3356 H         1 UNK         0.3086 
    132 H132      -51.1848  -26.6559    9.3036 H         1 UNK         0.0583 
    133 H133      -53.6008  -26.6695    8.3877 H         1 UNK         0.1020 
    134 H134      -53.2664  -25.1272    7.6605 H         1 UNK         0.1020 
    135 H135      -53.6581  -28.6540    6.8405 H         1 UNK         0.0694 
    136 H136      -52.2305  -29.2223    6.0137 H         1 UNK         0.0694 
    137 H137      -51.0885  -24.1337    7.8992 H         1 UNK         0.2989 
    138 H138      -49.4785  -22.4205    8.5975 H         1 UNK         0.1055 
    139 H139      -46.8634  -23.7513    9.4609 H         1 UNK         0.0806 
    140 H140      -47.8278  -22.6581   10.4402 H         1 UNK         0.0806 
    141 H141      -47.0460  -22.0650    8.9823 H         1 UNK         0.0806 
    142 H142      -47.5044  -24.0164    7.1069 H         1 UNK         0.3061 
    143 H143      -48.9554  -24.9652    4.6745 H         1 UNK         0.0734 
    144 H144      -48.8785  -22.0619    3.7105 H         1 UNK         0.0832 
    145 H145      -48.6431  -23.4684    2.6711 H         1 UNK         0.0832 
    146 H146      -50.1762  -23.2202    3.4900 H         1 UNK         0.0832 
    147 H147      -46.7989  -25.0078    4.9761 H         1 UNK         0.3156 
    148 H148      -44.1863  -23.0577    4.1578 H         1 UNK         0.0589 
    149 H149      -43.0946  -23.0941    6.4219 H         1 UNK         0.0808 
    150 H150      -44.2095  -21.7484    6.2580 H         1 UNK         0.0808 
    151 H151      -44.6843  -23.1647    7.1820 H         1 UNK         0.0808 
    152 H152      -44.2961  -25.3155    5.9682 H         1 UNK         0.3098 
    153 H153      -45.2913  -27.7291    3.6475 H         1 UNK         0.0720 
    154 H154      -42.3827  -27.4182    4.5737 H         1 UNK         0.0791 
    155 H155      -42.9021  -27.5928    2.9028 H         1 UNK         0.0791 
    156 H156      -43.1455  -28.9144    4.0313 H         1 UNK         0.0791 
    157 H157      -44.1386  -28.0844    6.1984 H         1 UNK         0.3028 
@<TRIPOS>BOND
     1    1    2 1    
     2    1   82 1    
     3    1   83 1    
     4    1   84 1    
     5    2    3 2    
     6    2    4 am   BACKBONE|DICT|INTERRES
     7    4    5 1    
     8    4   85 1    
     9    5    6 1    
    10    5   80 1    
    11    5   86 1    
    12    6    7 1    
    13    6   87 1    
    14    6   88 1    
    15    7    8 1    
    16    8    9 1    
    17    8   89 1    
    18    8   90 1    
    19    9   10 ar   
    20    9   14 ar   
    21   10   11 ar   
    22   10   91 1    
    23   11   12 ar   
    24   11   58 1    
    25   12   13 ar   
    26   12   92 1    
    27   13   14 ar   
    28   13   15 1    
    29   14   93 1    
    30   15   16 1    
    31   15   94 1    
    32   15   95 1    
    33   16   17 1    
    34   17   18 1    
    35   17   96 1    
    36   17   97 1    
    37   18   19 1    
    38   18   22 1    
    39   18   98 1    
    40   19   20 am   BACKBONE|DICT|INTERRES
    41   19   21 2    
    42   20   99 1    
    43   20  100 1    
    44   22   23 am   BACKBONE|DICT|INTERRES
    45   22  101 1    
    46   23   24 2    
    47   23   25 1    
    48   25   26 1    
    49   25   27 1    
    50   25  102 1    
    51   26  103 1    
    52   26  104 1    
    53   26  105 1    
    54   27   28 am   BACKBONE|DICT|INTERRES
    55   27  106 1    
    56   28   29 2    
    57   28   30 1    
    58   30   31 1    
    59   30   32 1    
    60   30  107 1    
    61   31  108 1    
    62   31  109 1    
    63   31  110 1    
    64   32   33 am   BACKBONE|DICT|INTERRES
    65   32  111 1    
    66   33   34 2    
    67   33   35 1    
    68   35   36 1    
    69   35   37 1    
    70   35  112 1    
    71   36  113 1    
    72   36  114 1    
    73   36  115 1    
    74   37   38 am   BACKBONE|DICT|INTERRES
    75   37  116 1    
    76   38   39 2    
    77   38   40 1    
    78   40   41 1    
    79   40   42 1    
    80   40  117 1    
    81   41  118 1    
    82   41  119 1    
    83   41  120 1    
    84   42   43 am   BACKBONE|DICT|INTERRES
    85   42  121 1    
    86   43   44 2    
    87   43   45 1    
    88   45   46 1    
    89   45   47 1    
    90   45  122 1    
    91   46  123 1    
    92   46  124 1    
    93   46  125 1    
    94   47   48 am   BACKBONE|DICT|INTERRES
    95   47  126 1    
    96   48   49 2    
    97   48   50 1    
    98   50   51 1    
    99   50   52 1    
   100   50  127 1    
   101   51  128 1    
   102   51  129 1    
   103   51  130 1    
   104   52   53 am   BACKBONE|DICT|INTERRES
   105   52  131 1    
   106   53   54 2    
   107   53   55 1    
   108   55   56 1    
   109   55   59 1    
   110   55  132 1    
   111   56   57 1    
   112   56  133 1    
   113   56  134 1    
   114   57   58 1    
   115   58  135 1    
   116   58  136 1    
   117   59   60 am   BACKBONE|DICT|INTERRES
   118   59  137 1    
   119   60   61 2    
   120   60   62 1    
   121   62   63 1    
   122   62   64 1    
   123   62  138 1    
   124   63  139 1    
   125   63  140 1    
   126   63  141 1    
   127   64   65 am   BACKBONE|DICT|INTERRES
   128   64  142 1    
   129   65   66 2    
   130   65   67 1    
   131   67   68 1    
   132   67   69 1    
   133   67  143 1    
   134   68  144 1    
   135   68  145 1    
   136   68  146 1    
   137   69   70 am   BACKBONE|DICT|INTERRES
   138   69  147 1    
   139   70   71 2    
   140   70   72 1    
   141   72   73 1    
   142   72   74 1    
   143   72  148 1    
   144   73  149 1    
   145   73  150 1    
   146   73  151 1    
   147   74   75 am   BACKBONE|DICT|INTERRES
   148   74  152 1    
   149   75   76 2    
   150   75   77 1    
   151   77   78 1    
   152   77   79 1    
   153   77  153 1    
   154   78  154 1    
   155   78  155 1    
   156   78  156 1    
   157   79   80 am   BACKBONE|DICT|INTERRES
   158   79  157 1    
   159   80   81 2    
@<TRIPOS>SUBSTRUCTURE
     1 UNK         1 GROUP             0       ****    0 ROOT    
