@<TRIPOS>MOLECULE
3R207
157   159    1
SMALL
USER_CHARGES


@<TRIPOS>ATOM
      1 CA        -45.3173  -30.1240    6.5796 C.3       0 UNK        -0.1975 
      2 C         -46.6636  -29.7755    5.9623 C.2       0 UNK         0.4852 
      3 O         -46.7871  -29.7495    4.7374 O.2       0 UNK        -0.5216 
      4 N         -47.6713  -29.5070    6.8035 N.am      1 UNK        -0.4461 
      5 CA        -49.0414  -29.1564    6.4043 C.3       1 UNK         0.0864 
      6 C6        -50.0074  -29.1668    7.6116 C.3       14 UNK        -0.0898 
      7 S7        -50.1546  -30.7933    8.4250 S.3       14 UNK        -0.2598 
      8 C8        -50.8986  -30.3345   10.0286 C.3       14 UNK         0.0286 
      9 C9        -52.1184  -29.4392    9.8553 C.ar      14 UNK        -0.0844 
     10 C10       -51.9883  -28.0559   10.0012 C.ar      14 UNK        -0.0881 
     11 C11       -53.0677  -27.2066    9.7469 C.ar      14 UNK        -0.0643 
     12 C12       -54.3020  -27.7569    9.3906 C.ar      14 UNK        -0.0930 
     13 C13       -54.4586  -29.1430    9.2858 C.ar      14 UNK        -0.0827 
     14 C14       -53.3612  -29.9806    9.5136 C.ar      14 UNK        -0.1249 
     15 C15       -55.8089  -29.7266    8.8955 C.3       14 UNK         0.0141 
     16 S16       -57.0252  -29.5988   10.2440 S.3       14 UNK        -0.2313 
     17 C17       -56.4523  -30.9154   11.3675 C.3       14 UNK        -0.0915 
     18 CA        -57.2754  -30.9658   12.6825 C.3       13 UNK         0.0968 
     19 C         -56.9347  -32.2371   13.5120 C.2       13 UNK         0.5732 
     20 N         -56.4360  -32.1238   14.7378 N.am      13 UNK        -0.7310 
     21 O         -57.1433  -33.3522   13.0393 O.2       13 UNK        -0.5035 
     22 N         -57.1555  -29.7114   13.4425 N.am      13 UNK        -0.4233 
     23 C         -58.1098  -29.1932   14.2284 C.2       13 UNK         0.4989 
     24 O         -59.2153  -29.7131   14.3871 O.2       13 UNK        -0.4996 
     25 CA        -57.7958  -27.8829   14.9829 C.3       12 UNK         0.0216 
     26 CB        -57.6330  -28.1544   16.4881 C.3       12 UNK        -0.1964 
     27 N         -56.5991  -27.1926   14.4957 N.am      12 UNK        -0.4276 
     28 C         -56.4985  -26.5580   13.3206 C.2       12 UNK         0.5020 
     29 O         -57.4580  -26.3495   12.5773 O.2       12 UNK        -0.5489 
     30 CA        -55.0955  -26.0896   12.8837 C.3       11 UNK         0.0294 
     31 CB        -54.9836  -24.5593   12.9877 C.3       11 UNK        -0.2019 
     32 N         -53.9594  -26.6933   13.5959 N.am      11 UNK        -0.4493 
     33 C         -53.6725  -27.9966   13.7133 C.2       11 UNK         0.4932 
     34 O         -54.4044  -28.8901   13.2910 O.2       11 UNK        -0.5029 
     35 CA        -52.3885  -28.3971   14.4675 C.3       10 UNK         0.0280 
     36 CB        -51.2797  -28.7744   13.4712 C.3       10 UNK        -0.1976 
     37 N         -51.8864  -27.4441   15.4733 N.am      10 UNK        -0.4242 
     38 C         -51.4147  -26.1993   15.3042 C.2       10 UNK         0.5072 
     39 O         -51.4454  -25.5972   14.2311 O.2       10 UNK        -0.5224 
     40 CA        -50.8584  -25.4718   16.5459 C.3       9 UNK         0.0343 
     41 CB        -50.8863  -26.3050   17.8488 C.3       9 UNK        -0.2003 
     42 N         -49.5152  -24.9356   16.3002 N.am      9 UNK        -0.4272 
     43 C         -48.4098  -25.6196   15.9701 C.2       9 UNK         0.4988 
     44 O         -48.3637  -26.8478   15.8785 O.2       9 UNK        -0.5108 
     45 CA        -47.1404  -24.7807   15.7079 C.3       8 UNK         0.0248 
     46 CB        -45.9223  -25.6501   15.3422 C.3       8 UNK        -0.2001 
     47 N         -47.3392  -23.7914   14.6466 N.am      8 UNK        -0.4140 
     48 C         -48.0036  -22.6328   14.7644 C.2       8 UNK         0.5028 
     49 O         -48.5105  -22.2400   15.8163 O.2       8 UNK        -0.5428 
     50 CA        -48.1777  -21.8070   13.4811 C.3       7 UNK         0.0264 
     51 CB        -46.8866  -21.0513   13.1268 C.3       7 UNK        -0.1988 
     52 N         -48.5772  -22.6779   12.3738 N.am      7 UNK        -0.4454 
     53 C         -49.8363  -23.0986   12.1757 C.2       7 UNK         0.5027 
     54 O         -50.7998  -22.6421   12.7927 O.2       7 UNK        -0.5083 
     55 CA        -50.0811  -24.2126   11.1373 C.3       6 UNK         0.0844 
     56 C56       -50.9465  -23.7004    9.9584 C.3       14 UNK        -0.0967 
     57 S57       -51.5042  -25.0683    8.8903 S.3       14 UNK        -0.2604 
     58 C58       -52.9000  -25.7006    9.8831 C.3       14 UNK         0.0134 
     59 N         -48.8254  -24.8166   10.6816 N.am      6 UNK        -0.4116 
     60 C         -48.3191  -25.9685   11.1461 C.2       5 UNK         0.5034 
     61 O         -48.8895  -26.6974   11.9538 O.2       5 UNK        -0.5045 
     62 CA        -46.9265  -26.3878   10.6406 C.3       5 UNK         0.0224 
     63 CB        -47.0580  -27.4240    9.5155 C.3       5 UNK        -0.1978 
     64 N         -46.1044  -25.2637   10.1823 N.am      5 UNK        -0.4737 
     65 C         -45.6642  -24.2849   10.9864 C.2       4 UNK         0.5027 
     66 O         -45.8874  -24.2517   12.1964 O.2       4 UNK        -0.5211 
     67 CA        -44.9175  -23.1083   10.3361 C.3       4 UNK         0.0297 
     68 CB        -43.4002  -23.3359   10.4091 C.3       4 UNK        -0.1993 
     69 N         -45.3032  -22.8350    8.9489 N.am      4 UNK        -0.4486 
     70 C         -46.5425  -22.5791    8.5049 C.2       3 UNK         0.4961 
     71 O         -47.5435  -22.5763    9.2246 O.2       3 UNK        -0.5105 
     72 CA        -46.7031  -22.3129    6.9954 C.3       3 UNK         0.0299 
     73 CB        -45.3670  -22.1038    6.2452 C.3       3 UNK        -0.1972 
     74 N         -47.4925  -23.3515    6.3239 N.am      3 UNK        -0.4305 
     75 C         -47.2826  -24.6757    6.3511 C.2       2 UNK         0.5006 
     76 O         -46.4079  -25.2358    7.0204 O.2       2 UNK        -0.5106 
     77 CA        -48.1866  -25.5120    5.4401 C.3       2 UNK         0.0296 
     78 CB        -47.6832  -25.4740    3.9845 C.3       2 UNK        -0.2002 
     79 N         -48.2000  -26.8850    5.9300 N.am      2 UNK        -0.4032 
     80 C         -49.1509  -27.7939    5.6826 C.2       1 UNK         0.5000 
     81 O         -50.1088  -27.5887    4.9342 O.2       1 UNK        -0.5238 
     82 H82       -45.3541  -30.1218    7.6689 H         1 UNK         0.0889 
     83 H83       -44.5631  -29.4033    6.2646 H         1 UNK         0.0889 
     84 H84       -45.0003  -31.1142    6.2534 H         1 UNK         0.0889 
     85 H85       -47.5211  -29.5961    7.7977 H         1 UNK         0.3028 
     86 H86       -49.3780  -29.9142    5.6933 H         1 UNK         0.0864 
     87 H87       -51.0118  -28.8748    7.2961 H         1 UNK         0.0720 
     88 H88       -49.6927  -28.4288    8.3510 H         1 UNK         0.0720 
     89 H89       -50.1445  -29.8371   10.6411 H         1 UNK         0.0814 
     90 H90       -51.1795  -31.2412   10.5662 H         1 UNK         0.0814 
     91 H91       -51.0332  -27.6311   10.2795 H         1 UNK         0.1469 
     92 H92       -55.1483  -27.1099    9.2043 H         1 UNK         0.1381 
     93 H93       -53.4668  -31.0514    9.4067 H         1 UNK         0.1206 
     94 H94       -55.7117  -30.7694    8.5894 H         1 UNK         0.0813 
     95 H95       -56.1916  -29.1896    8.0265 H         1 UNK         0.0813 
     96 H96       -56.5248  -31.8616   10.8281 H         1 UNK         0.0638 
     97 H97       -55.3939  -30.7633   11.5852 H         1 UNK         0.0638 
     98 H98       -58.3220  -31.0855   12.3962 H         1 UNK         0.0568 
     99 H99       -56.2560  -31.2154   15.1320 H         1 UNK         0.3450 
    100 H100      -56.2274  -32.9567   15.2650 H         1 UNK         0.3450 
    101 H101      -56.2517  -29.2509   13.3739 H         1 UNK         0.2987 
    102 H102      -58.6516  -27.2186   14.8452 H         1 UNK         0.0766 
    103 H103      -56.7843  -28.8083   16.6927 H         1 UNK         0.0798 
    104 H104      -58.5218  -28.6375   16.8970 H         1 UNK         0.0798 
    105 H105      -57.4868  -27.2287   17.0452 H         1 UNK         0.0798 
    106 H106      -55.7537  -27.3078   15.0351 H         1 UNK         0.3198 
    107 H107      -54.9965  -26.3715   11.8351 H         1 UNK         0.0843 
    108 H108      -54.0319  -24.1979   12.5975 H         1 UNK         0.0831 
    109 H109      -55.0705  -24.2208   14.0208 H         1 UNK         0.0831 
    110 H110      -55.7731  -24.0691   12.4162 H         1 UNK         0.0831 
    111 H111      -53.2328  -26.0558   13.9123 H         1 UNK         0.3133 
    112 H112      -52.6383  -29.2986   15.0289 H         1 UNK         0.0566 
    113 H113      -51.6039  -29.5891   12.8233 H         1 UNK         0.0814 
    114 H114      -51.0176  -27.9330   12.8304 H         1 UNK         0.0814 
    115 H115      -50.3739  -29.1016   13.9816 H         1 UNK         0.0814 
    116 H116      -51.8434  -27.8121   16.4134 H         1 UNK         0.3091 
    117 H117      -51.5045  -24.6060   16.6979 H         1 UNK         0.0702 
    118 H118      -50.5045  -25.7241   18.6886 H         1 UNK         0.0785 
    119 H119      -50.2800  -27.2087   17.7758 H         1 UNK         0.0785 
    120 H120      -51.9030  -26.6017   18.1098 H         1 UNK         0.0785 
    121 H121      -49.4359  -23.9224   16.2996 H         1 UNK         0.2998 
    122 H122      -46.9060  -24.2534   16.6349 H         1 UNK         0.0697 
    123 H123      -45.0275  -25.0425   15.2056 H         1 UNK         0.0825 
    124 H124      -45.7054  -26.3739   16.1287 H         1 UNK         0.0825 
    125 H125      -46.0902  -26.2076   14.4194 H         1 UNK         0.0825 
    126 H126      -46.9315  -24.0233   13.7434 H         1 UNK         0.3029 
    127 H127      -48.9618  -21.0664   13.6548 H         1 UNK         0.0897 
    128 H128      -46.9800  -20.5259   12.1761 H         1 UNK         0.0792 
    129 H129      -46.6580  -20.3052   13.8889 H         1 UNK         0.0792 
    130 H130      -46.0254  -21.7159   13.0631 H         1 UNK         0.0792 
    131 H131      -47.8347  -23.0966   11.8311 H         1 UNK         0.3086 
    132 H132      -50.6622  -24.9667   11.6702 H         1 UNK         0.0583 
    133 H133      -51.8278  -23.1644   10.3175 H         1 UNK         0.1020 
    134 H134      -50.3848  -22.9878    9.3512 H         1 UNK         0.1020 
    135 H135      -52.7461  -25.4793   10.9388 H         1 UNK         0.0694 
    136 H136      -53.8084  -25.1742    9.5868 H         1 UNK         0.0694 
    137 H137      -48.2880  -24.2685   10.0175 H         1 UNK         0.2989 
    138 H138      -46.4070  -26.8569   11.4794 H         1 UNK         0.1055 
    139 H139      -47.6312  -27.0252    8.6801 H         1 UNK         0.0806 
    140 H140      -47.5751  -28.3163    9.8715 H         1 UNK         0.0806 
    141 H141      -46.0825  -27.7370    9.1430 H         1 UNK         0.0806 
    142 H142      -45.9242  -25.1986    9.1860 H         1 UNK         0.3061 
    143 H143      -45.1546  -22.2134   10.9130 H         1 UNK         0.0734 
    144 H144      -42.8486  -22.4664   10.0510 H         1 UNK         0.0832 
    145 H145      -43.0823  -23.5164   11.4372 H         1 UNK         0.0832 
    146 H146      -43.0922  -24.1988    9.8172 H         1 UNK         0.0832 
    147 H147      -44.5593  -22.8484    8.2663 H         1 UNK         0.3156 
    148 H148      -47.2745  -21.3871    6.9135 H         1 UNK         0.0589 
    149 H149      -44.7530  -23.0053    6.2324 H         1 UNK         0.0808 
    150 H150      -45.5459  -21.8199    5.2080 H         1 UNK         0.0808 
    151 H151      -44.7798  -21.3008    6.6934 H         1 UNK         0.0808 
    152 H152      -48.2636  -23.0091    5.7674 H         1 UNK         0.3098 
    153 H153      -49.1995  -25.1063    5.4927 H         1 UNK         0.0720 
    154 H154      -47.6488  -24.4523    3.6042 H         1 UNK         0.0791 
    155 H155      -46.6783  -25.8897    3.8979 H         1 UNK         0.0791 
    156 H156      -48.3364  -26.0415    3.3215 H         1 UNK         0.0791 
    157 H157      -47.4381  -27.1089    6.5571 H         1 UNK         0.3028 
@<TRIPOS>BOND
     1    1    2 1    
     2    1   82 1    
     3    1   83 1    
     4    1   84 1    
     5    2    3 2    
     6    2    4 am   BACKBONE|DICT|INTERRES
     7    4    5 1    
     8    4   85 1    
     9    5    6 1    
    10    5   80 1    
    11    5   86 1    
    12    6    7 1    
    13    6   87 1    
    14    6   88 1    
    15    7    8 1    
    16    8    9 1    
    17    8   89 1    
    18    8   90 1    
    19    9   10 ar   
    20    9   14 ar   
    21   10   11 ar   
    22   10   91 1    
    23   11   12 ar   
    24   11   58 1    
    25   12   13 ar   
    26   12   92 1    
    27   13   14 ar   
    28   13   15 1    
    29   14   93 1    
    30   15   16 1    
    31   15   94 1    
    32   15   95 1    
    33   16   17 1    
    34   17   18 1    
    35   17   96 1    
    36   17   97 1    
    37   18   19 1    
    38   18   22 1    
    39   18   98 1    
    40   19   20 am   BACKBONE|DICT|INTERRES
    41   19   21 2    
    42   20   99 1    
    43   20  100 1    
    44   22   23 am   BACKBONE|DICT|INTERRES
    45   22  101 1    
    46   23   24 2    
    47   23   25 1    
    48   25   26 1    
    49   25   27 1    
    50   25  102 1    
    51   26  103 1    
    52   26  104 1    
    53   26  105 1    
    54   27   28 am   BACKBONE|DICT|INTERRES
    55   27  106 1    
    56   28   29 2    
    57   28   30 1    
    58   30   31 1    
    59   30   32 1    
    60   30  107 1    
    61   31  108 1    
    62   31  109 1    
    63   31  110 1    
    64   32   33 am   BACKBONE|DICT|INTERRES
    65   32  111 1    
    66   33   34 2    
    67   33   35 1    
    68   35   36 1    
    69   35   37 1    
    70   35  112 1    
    71   36  113 1    
    72   36  114 1    
    73   36  115 1    
    74   37   38 am   BACKBONE|DICT|INTERRES
    75   37  116 1    
    76   38   39 2    
    77   38   40 1    
    78   40   41 1    
    79   40   42 1    
    80   40  117 1    
    81   41  118 1    
    82   41  119 1    
    83   41  120 1    
    84   42   43 am   BACKBONE|DICT|INTERRES
    85   42  121 1    
    86   43   44 2    
    87   43   45 1    
    88   45   46 1    
    89   45   47 1    
    90   45  122 1    
    91   46  123 1    
    92   46  124 1    
    93   46  125 1    
    94   47   48 am   BACKBONE|DICT|INTERRES
    95   47  126 1    
    96   48   49 2    
    97   48   50 1    
    98   50   51 1    
    99   50   52 1    
   100   50  127 1    
   101   51  128 1    
   102   51  129 1    
   103   51  130 1    
   104   52   53 am   BACKBONE|DICT|INTERRES
   105   52  131 1    
   106   53   54 2    
   107   53   55 1    
   108   55   56 1    
   109   55   59 1    
   110   55  132 1    
   111   56   57 1    
   112   56  133 1    
   113   56  134 1    
   114   57   58 1    
   115   58  135 1    
   116   58  136 1    
   117   59   60 am   BACKBONE|DICT|INTERRES
   118   59  137 1    
   119   60   61 2    
   120   60   62 1    
   121   62   63 1    
   122   62   64 1    
   123   62  138 1    
   124   63  139 1    
   125   63  140 1    
   126   63  141 1    
   127   64   65 am   BACKBONE|DICT|INTERRES
   128   64  142 1    
   129   65   66 2    
   130   65   67 1    
   131   67   68 1    
   132   67   69 1    
   133   67  143 1    
   134   68  144 1    
   135   68  145 1    
   136   68  146 1    
   137   69   70 am   BACKBONE|DICT|INTERRES
   138   69  147 1    
   139   70   71 2    
   140   70   72 1    
   141   72   73 1    
   142   72   74 1    
   143   72  148 1    
   144   73  149 1    
   145   73  150 1    
   146   73  151 1    
   147   74   75 am   BACKBONE|DICT|INTERRES
   148   74  152 1    
   149   75   76 2    
   150   75   77 1    
   151   77   78 1    
   152   77   79 1    
   153   77  153 1    
   154   78  154 1    
   155   78  155 1    
   156   78  156 1    
   157   79   80 am   BACKBONE|DICT|INTERRES
   158   79  157 1    
   159   80   81 2    
@<TRIPOS>SUBSTRUCTURE
     1 UNK         1 GROUP             0       ****    0 ROOT    
