@<TRIPOS>MOLECULE
3R207
157   159    1
SMALL
USER_CHARGES


@<TRIPOS>ATOM
      1 CA        -49.5602  -22.5730    5.2930 C.3       0 UNK        -0.1975 
      2 C         -49.3945  -23.9848    5.8339 C.2       0 UNK         0.4852 
      3 O         -49.3071  -24.1633    7.0488 O.2       0 UNK        -0.5216 
      4 N         -49.3605  -24.9860    4.9448 N.am      1 UNK        -0.4461 
      5 CA        -49.1204  -26.3946    5.2753 C.3       1 UNK         0.0864 
      6 C6        -49.8137  -27.3338    4.2481 C.3       14 UNK        -0.0898 
      7 S7        -50.1068  -29.0321    4.8684 S.3       14 UNK        -0.2598 
      8 C8        -51.9207  -29.1286    5.0050 C.3       14 UNK         0.0286 
      9 C9        -52.4298  -28.4948    6.2907 C.ar      14 UNK        -0.0844 
     10 C10       -52.9593  -27.2023    6.2794 C.ar      14 UNK        -0.0881 
     11 C11       -53.4339  -26.6170    7.4576 C.ar      14 UNK        -0.0643 
     12 C12       -53.3798  -27.3397    8.6529 C.ar      14 UNK        -0.0930 
     13 C13       -52.8443  -28.6308    8.6805 C.ar      14 UNK        -0.0827 
     14 C14       -52.3818  -29.2075    7.4932 C.ar      14 UNK        -0.1249 
     15 C15       -52.7125  -29.3788    9.9997 C.3       14 UNK         0.0141 
     16 S16       -54.2809  -30.1268   10.5352 S.3       14 UNK        -0.2313 
     17 C17       -53.7485  -30.9396   12.0822 C.3       14 UNK        -0.0915 
     18 CA        -54.4745  -30.3833   13.3392 C.3       13 UNK         0.0968 
     19 C         -55.8262  -31.1116   13.5849 C.2       13 UNK         0.5732 
     20 N         -56.9104  -30.6292   12.9936 N.am      13 UNK        -0.7310 
     21 O         -55.8899  -32.1300   14.2719 O.2       13 UNK        -0.5035 
     22 N         -53.5798  -30.4057   14.5076 N.am      13 UNK        -0.4233 
     23 C         -53.8404  -29.8608   15.7040 C.2       13 UNK         0.4989 
     24 O         -54.8863  -29.2658   15.9671 O.2       13 UNK        -0.4996 
     25 CA        -52.7465  -29.9721   16.7836 C.3       12 UNK         0.0216 
     26 CB        -51.3784  -30.4425   16.2436 C.3       12 UNK        -0.1964 
     27 N         -52.5631  -28.6729   17.4321 N.am      12 UNK        -0.4276 
     28 C         -53.0201  -28.3309   18.6435 C.2       12 UNK         0.5020 
     29 O         -53.6528  -29.0901   19.3793 O.2       12 UNK        -0.5489 
     30 CA        -52.7102  -26.9065   19.1320 C.3       11 UNK         0.0294 
     31 CB        -51.2666  -26.8213   19.6555 C.3       11 UNK        -0.2019 
     32 N         -52.8965  -25.9146   18.0703 N.am      11 UNK        -0.4493 
     33 C         -53.7949  -24.9184   18.0924 C.2       11 UNK         0.4932 
     34 O         -54.5538  -24.6995   19.0373 O.2       11 UNK        -0.5029 
     35 CA        -53.8670  -23.9991   16.8551 C.3       10 UNK         0.0280 
     36 CB        -53.0350  -22.7280   17.0846 C.3       10 UNK        -0.1976 
     37 N         -53.4179  -24.6600   15.6273 N.am      10 UNK        -0.4242 
     38 C         -54.0794  -25.6673   15.0362 C.2       10 UNK         0.5072 
     39 O         -55.2236  -25.9938   15.3520 O.2       10 UNK        -0.5224 
     40 CA        -53.3569  -26.4759   13.9388 C.3       9 UNK         0.0343 
     41 CB        -54.0474  -26.2954   12.5789 C.3       9 UNK        -0.2003 
     42 N         -51.9215  -26.2149   13.7946 N.am      9 UNK        -0.4272 
     43 C         -50.9827  -26.3747   14.7383 C.2       9 UNK         0.4988 
     44 O         -51.2173  -26.8110   15.8660 O.2       9 UNK        -0.5108 
     45 CA        -49.5585  -25.9042   14.3921 C.3       8 UNK         0.0248 
     46 CB        -48.7492  -27.0578   13.7812 C.3       8 UNK        -0.2001 
     47 N         -49.5335  -24.7381   13.4975 N.am      8 UNK        -0.4140 
     48 C         -50.0801  -23.5451   13.7866 C.2       8 UNK         0.5028 
     49 O         -50.6336  -23.2883   14.8559 O.2       8 UNK        -0.5428 
     50 CA        -50.0621  -22.4828   12.6775 C.3       7 UNK         0.0264 
     51 CB        -48.7016  -21.7693   12.6080 C.3       7 UNK        -0.1988 
     52 N         -50.3950  -23.0817   11.3824 N.am      7 UNK        -0.4454 
     53 C         -51.6531  -23.3487   10.9948 C.2       7 UNK         0.5027 
     54 O         -52.6435  -22.9943   11.6350 O.2       7 UNK        -0.5083 
     55 CA        -51.8664  -24.1540    9.6928 C.3       6 UNK         0.0844 
     56 C56       -52.2671  -23.1973    8.5415 C.3       14 UNK        -0.0967 
     57 S57       -52.7511  -23.9797    6.9636 S.3       14 UNK        -0.2604 
     58 C58       -54.0132  -25.2096    7.4235 C.3       14 UNK         0.0134 
     59 N         -50.7283  -25.0242    9.3685 N.am      6 UNK        -0.4116 
     60 C         -50.3705  -26.0833   10.1131 C.2       5 UNK         0.5034 
     61 O         -51.0010  -26.4529   11.1020 O.2       5 UNK        -0.5045 
     62 CA        -49.0635  -26.8204    9.7647 C.3       5 UNK         0.0224 
     63 CB        -49.3424  -28.0417    8.8780 C.3       5 UNK        -0.1978 
     64 N         -48.0342  -25.9699    9.1606 N.am      5 UNK        -0.4737 
     65 C         -47.5123  -24.8830    9.7446 C.2       4 UNK         0.5027 
     66 O         -47.8602  -24.4861   10.8589 O.2       4 UNK        -0.5211 
     67 CA        -46.4472  -24.1170    8.9377 C.3       4 UNK         0.0297 
     68 CB        -45.8240  -22.9431    9.7235 C.3       4 UNK        -0.1993 
     69 N         -45.4161  -25.0058    8.3876 N.am      4 UNK        -0.4486 
     70 C         -44.5394  -25.7559    9.0756 C.2       3 UNK         0.4961 
     71 O         -44.4565  -25.7685   10.3049 O.2       3 UNK        -0.5105 
     72 CA        -43.5871  -26.6353    8.2354 C.3       3 UNK         0.0299 
     73 CB        -42.8803  -27.7264    9.0690 C.3       3 UNK        -0.1972 
     74 N         -44.2333  -27.2194    7.0520 N.am      3 UNK        -0.4305 
     75 C         -45.2968  -28.0357    7.0418 C.2       2 UNK         0.5006 
     76 O         -45.8623  -28.4580    8.0510 O.2       2 UNK        -0.5106 
     77 CA        -45.8446  -28.4229    5.6599 C.3       2 UNK         0.0296 
     78 CB        -45.8034  -29.9466    5.4563 C.3       2 UNK        -0.2002 
     79 N         -47.2181  -27.9489    5.4847 N.am      2 UNK        -0.4032 
     80 C         -47.6028  -26.6665    5.4588 C.2       1 UNK         0.5000 
     81 O         -46.8057  -25.7300    5.5796 O.2       1 UNK        -0.5238 
     82 H82       -50.4623  -22.1199    5.7029 H         1 UNK         0.0889 
     83 H83       -49.6363  -22.5583    4.2061 H         1 UNK         0.0889 
     84 H84       -48.7077  -21.9599    5.5836 H         1 UNK         0.0889 
     85 H85       -49.4079  -24.7700    3.9596 H         1 UNK         0.3028 
     86 H86       -49.5900  -26.5725    6.2416 H         1 UNK         0.0864 
     87 H87       -50.7784  -26.9127    3.9610 H         1 UNK         0.0720 
     88 H88       -49.2360  -27.3916    3.3236 H         1 UNK         0.0720 
     89 H89       -52.2139  -30.1792    4.9854 H         1 UNK         0.0814 
     90 H90       -52.3874  -28.6726    4.1305 H         1 UNK         0.0814 
     91 H91       -52.9991  -26.6439    5.3542 H         1 UNK         0.1469 
     92 H92       -53.7423  -26.8941    9.5669 H         1 UNK         0.1381 
     93 H93       -51.9627  -30.2043    7.5064 H         1 UNK         0.1206 
     94 H94       -52.3540  -28.7001   10.7738 H         1 UNK         0.0813 
     95 H95       -51.9591  -30.1629    9.9107 H         1 UNK         0.0813 
     96 H96       -53.8879  -32.0179   11.9816 H         1 UNK         0.0638 
     97 H97       -52.6706  -30.8011   12.1794 H         1 UNK         0.0638 
     98 H98       -54.6992  -29.3288   13.1685 H         1 UNK         0.0568 
     99 H99       -57.7927  -31.0969   13.1293 H         1 UNK         0.3450 
    100 H100      -56.8589  -29.8161   12.4003 H         1 UNK         0.3450 
    101 H101      -52.7112  -30.9040   14.3894 H         1 UNK         0.2987 
    102 H102      -53.0929  -30.7105   17.5096 H         1 UNK         0.0766 
    103 H103      -51.4332  -31.4519   15.8340 H         1 UNK         0.0798 
    104 H104      -50.6354  -30.4704   17.0412 H         1 UNK         0.0798 
    105 H105      -50.9957  -29.7797   15.4657 H         1 UNK         0.0798 
    106 H106      -52.0590  -27.9771   16.8840 H         1 UNK         0.3198 
    107 H107      -53.3825  -26.7000   19.9675 H         1 UNK         0.0843 
    108 H108      -50.5367  -27.0070   18.8663 H         1 UNK         0.0831 
    109 H109      -51.0923  -27.5564   20.4425 H         1 UNK         0.0831 
    110 H110      -51.0581  -25.8385   20.0787 H         1 UNK         0.0831 
    111 H111      -52.3200  -26.0286   17.2419 H         1 UNK         0.3133 
    112 H112      -54.9094  -23.7029   16.7200 H         1 UNK         0.0566 
    113 H113      -53.1004  -22.0501   16.2332 H         1 UNK         0.0814 
    114 H114      -51.9815  -22.9597   17.2472 H         1 UNK         0.0814 
    115 H115      -53.3880  -22.1835   17.9615 H         1 UNK         0.0814 
    116 H116      -52.4939  -24.4125   15.2905 H         1 UNK         0.3091 
    117 H117      -53.4515  -27.5226   14.2187 H         1 UNK         0.0702 
    118 H118      -53.6227  -26.9682   11.8369 H         1 UNK         0.0785 
    119 H119      -53.9511  -25.2748   12.2096 H         1 UNK         0.0785 
    120 H120      -55.1125  -26.5218   12.6436 H         1 UNK         0.0785 
    121 H121      -51.6083  -25.9502   12.8648 H         1 UNK         0.2998 
    122 H122      -49.0753  -25.6049   15.3244 H         1 UNK         0.0697 
    123 H123      -49.2462  -27.4820   12.9095 H         1 UNK         0.0825 
    124 H124      -48.6269  -27.8661   14.5035 H         1 UNK         0.0825 
    125 H125      -47.7515  -26.7359   13.4816 H         1 UNK         0.0825 
    126 H126      -49.0726  -24.8495   12.6012 H         1 UNK         0.3029 
    127 H127      -50.8151  -21.7305   12.9237 H         1 UNK         0.0897 
    128 H128      -47.8773  -22.4635   12.4461 H         1 UNK         0.0792 
    129 H129      -48.4970  -21.2413   13.5403 H         1 UNK         0.0792 
    130 H130      -48.6809  -21.0309   11.8065 H         1 UNK         0.0792 
    131 H131      -49.6179  -23.4484   10.8427 H         1 UNK         0.3086 
    132 H132      -52.7165  -24.8051    9.8943 H         1 UNK         0.0583 
    133 H133      -53.1044  -22.5674    8.8497 H         1 UNK         0.1020 
    134 H134      -51.4448  -22.5120    8.3263 H         1 UNK         0.1020 
    135 H135      -54.4798  -24.9411    8.3720 H         1 UNK         0.0694 
    136 H136      -54.8095  -25.1809    6.6785 H         1 UNK         0.0694 
    137 H137      -50.1718  -24.7680    8.5538 H         1 UNK         0.2989 
    138 H138      -48.6388  -27.1862   10.7003 H         1 UNK         0.1055 
    139 H139      -49.9466  -27.7870    8.0101 H         1 UNK         0.0806 
    140 H140      -48.4260  -28.5164    8.5309 H         1 UNK         0.0806 
    141 H141      -49.8964  -28.7951    9.4372 H         1 UNK         0.0806 
    142 H142      -47.6911  -26.2320    8.2488 H         1 UNK         0.3061 
    143 H143      -46.9622  -23.6879    8.0780 H         1 UNK         0.0734 
    144 H144      -45.3385  -23.2779   10.6405 H         1 UNK         0.0832 
    145 H145      -45.0845  -22.4114    9.1251 H         1 UNK         0.0832 
    146 H146      -46.5889  -22.2206   10.0107 H         1 UNK         0.0832 
    147 H147      -45.4330  -25.1092    7.3796 H         1 UNK         0.3156 
    148 H148      -42.8152  -25.9629    7.8583 H         1 UNK         0.0589 
    149 H149      -42.2028  -28.3194    8.4548 H         1 UNK         0.0808 
    150 H150      -42.2858  -27.2836    9.8691 H         1 UNK         0.0808 
    151 H151      -43.5941  -28.4067    9.5345 H         1 UNK         0.0808 
    152 H152      -43.8600  -26.9181    6.1617 H         1 UNK         0.3098 
    153 H153      -45.2292  -27.9596    4.8858 H         1 UNK         0.0720 
    154 H154      -46.4319  -30.4680    6.1797 H         1 UNK         0.0791 
    155 H155      -44.7880  -30.3281    5.5719 H         1 UNK         0.0791 
    156 H156      -46.1416  -30.2233    4.4575 H         1 UNK         0.0791 
    157 H157      -47.9360  -28.6570    5.3925 H         1 UNK         0.3028 
@<TRIPOS>BOND
     1    1    2 1    
     2    1   82 1    
     3    1   83 1    
     4    1   84 1    
     5    2    3 2    
     6    2    4 am   BACKBONE|DICT|INTERRES
     7    4    5 1    
     8    4   85 1    
     9    5    6 1    
    10    5   80 1    
    11    5   86 1    
    12    6    7 1    
    13    6   87 1    
    14    6   88 1    
    15    7    8 1    
    16    8    9 1    
    17    8   89 1    
    18    8   90 1    
    19    9   10 ar   
    20    9   14 ar   
    21   10   11 ar   
    22   10   91 1    
    23   11   12 ar   
    24   11   58 1    
    25   12   13 ar   
    26   12   92 1    
    27   13   14 ar   
    28   13   15 1    
    29   14   93 1    
    30   15   16 1    
    31   15   94 1    
    32   15   95 1    
    33   16   17 1    
    34   17   18 1    
    35   17   96 1    
    36   17   97 1    
    37   18   19 1    
    38   18   22 1    
    39   18   98 1    
    40   19   20 am   BACKBONE|DICT|INTERRES
    41   19   21 2    
    42   20   99 1    
    43   20  100 1    
    44   22   23 am   BACKBONE|DICT|INTERRES
    45   22  101 1    
    46   23   24 2    
    47   23   25 1    
    48   25   26 1    
    49   25   27 1    
    50   25  102 1    
    51   26  103 1    
    52   26  104 1    
    53   26  105 1    
    54   27   28 am   BACKBONE|DICT|INTERRES
    55   27  106 1    
    56   28   29 2    
    57   28   30 1    
    58   30   31 1    
    59   30   32 1    
    60   30  107 1    
    61   31  108 1    
    62   31  109 1    
    63   31  110 1    
    64   32   33 am   BACKBONE|DICT|INTERRES
    65   32  111 1    
    66   33   34 2    
    67   33   35 1    
    68   35   36 1    
    69   35   37 1    
    70   35  112 1    
    71   36  113 1    
    72   36  114 1    
    73   36  115 1    
    74   37   38 am   BACKBONE|DICT|INTERRES
    75   37  116 1    
    76   38   39 2    
    77   38   40 1    
    78   40   41 1    
    79   40   42 1    
    80   40  117 1    
    81   41  118 1    
    82   41  119 1    
    83   41  120 1    
    84   42   43 am   BACKBONE|DICT|INTERRES
    85   42  121 1    
    86   43   44 2    
    87   43   45 1    
    88   45   46 1    
    89   45   47 1    
    90   45  122 1    
    91   46  123 1    
    92   46  124 1    
    93   46  125 1    
    94   47   48 am   BACKBONE|DICT|INTERRES
    95   47  126 1    
    96   48   49 2    
    97   48   50 1    
    98   50   51 1    
    99   50   52 1    
   100   50  127 1    
   101   51  128 1    
   102   51  129 1    
   103   51  130 1    
   104   52   53 am   BACKBONE|DICT|INTERRES
   105   52  131 1    
   106   53   54 2    
   107   53   55 1    
   108   55   56 1    
   109   55   59 1    
   110   55  132 1    
   111   56   57 1    
   112   56  133 1    
   113   56  134 1    
   114   57   58 1    
   115   58  135 1    
   116   58  136 1    
   117   59   60 am   BACKBONE|DICT|INTERRES
   118   59  137 1    
   119   60   61 2    
   120   60   62 1    
   121   62   63 1    
   122   62   64 1    
   123   62  138 1    
   124   63  139 1    
   125   63  140 1    
   126   63  141 1    
   127   64   65 am   BACKBONE|DICT|INTERRES
   128   64  142 1    
   129   65   66 2    
   130   65   67 1    
   131   67   68 1    
   132   67   69 1    
   133   67  143 1    
   134   68  144 1    
   135   68  145 1    
   136   68  146 1    
   137   69   70 am   BACKBONE|DICT|INTERRES
   138   69  147 1    
   139   70   71 2    
   140   70   72 1    
   141   72   73 1    
   142   72   74 1    
   143   72  148 1    
   144   73  149 1    
   145   73  150 1    
   146   73  151 1    
   147   74   75 am   BACKBONE|DICT|INTERRES
   148   74  152 1    
   149   75   76 2    
   150   75   77 1    
   151   77   78 1    
   152   77   79 1    
   153   77  153 1    
   154   78  154 1    
   155   78  155 1    
   156   78  156 1    
   157   79   80 am   BACKBONE|DICT|INTERRES
   158   79  157 1    
   159   80   81 2    
@<TRIPOS>SUBSTRUCTURE
     1 UNK         1 GROUP             0       ****    0 ROOT    
