@<TRIPOS>MOLECULE
3R207
157   159    1
SMALL
USER_CHARGES


@<TRIPOS>ATOM
      1 CA        -46.3498  -29.7261    6.6587 C.3       0 UNK        -0.1975 
      2 C         -46.8694  -28.5329    5.8716 C.2       0 UNK         0.4852 
      3 O         -46.7189  -27.3963    6.3166 O.2       0 UNK        -0.5216 
      4 N         -47.4534  -28.7843    4.6905 N.am      1 UNK        -0.4461 
      5 CA        -48.1394  -27.8264    3.7999 C.3       1 UNK         0.0864 
      6 C6        -49.4292  -27.2132    4.4171 C.3       14 UNK        -0.0898 
      7 S7        -50.5468  -28.4154    5.2144 S.3       14 UNK        -0.2598 
      8 C8        -50.4759  -27.8074    6.9292 C.3       14 UNK         0.0286 
      9 C9        -51.3288  -28.6566    7.8560 C.ar      14 UNK        -0.0844 
     10 C10       -50.7688  -29.7428    8.5362 C.ar      14 UNK        -0.0881 
     11 C11       -51.5509  -30.5103    9.4041 C.ar      14 UNK        -0.0643 
     12 C12       -52.9068  -30.2049    9.5621 C.ar      14 UNK        -0.0930 
     13 C13       -53.4699  -29.1077    8.9075 C.ar      14 UNK        -0.0827 
     14 C14       -52.6764  -28.3388    8.0518 C.ar      14 UNK        -0.1249 
     15 C15       -54.9304  -28.7450    9.1333 C.3       14 UNK         0.0141 
     16 S16       -55.1176  -27.5392   10.4859 S.3       14 UNK        -0.2313 
     17 C17       -54.8932  -28.5731   11.9749 C.3       14 UNK        -0.0915 
     18 CA        -55.8906  -28.2129   13.1112 C.3       13 UNK         0.0968 
     19 C         -55.8709  -29.2275   14.2917 C.2       13 UNK         0.5732 
     20 N         -56.1856  -28.8198   15.5173 N.am      13 UNK        -0.7310 
     21 O         -55.5827  -30.4066   14.1019 O.2       13 UNK        -0.5035 
     22 N         -55.7026  -26.8348   13.5880 N.am      13 UNK        -0.4233 
     23 C         -56.5592  -25.8254   13.4036 C.2       13 UNK         0.4989 
     24 O         -57.5862  -25.9072   12.7265 O.2       13 UNK        -0.4996 
     25 CA        -56.2127  -24.5038   14.1208 C.3       12 UNK         0.0216 
     26 CB        -57.4044  -23.5236   14.1642 C.3       12 UNK        -0.1964 
     27 N         -55.6625  -24.6803   15.4738 N.am      12 UNK        -0.4276 
     28 C         -56.2011  -25.3644   16.4947 C.2       12 UNK         0.5020 
     29 O         -57.1987  -26.0822   16.3984 O.2       12 UNK        -0.5489 
     30 CA        -55.4746  -25.2580   17.8478 C.3       11 UNK         0.0294 
     31 CB        -56.4457  -25.4037   19.0339 C.3       11 UNK        -0.2019 
     32 N         -54.4167  -26.2610   17.9744 N.am      11 UNK        -0.4493 
     33 C         -53.2668  -26.2450   17.2916 C.2       11 UNK         0.4932 
     34 O         -52.9773  -25.3700   16.4725 O.2       11 UNK        -0.5029 
     35 CA        -52.2853  -27.3885   17.5866 C.3       10 UNK         0.0280 
     36 CB        -52.8236  -28.7339   17.0667 C.3       10 UNK        -0.1976 
     37 N         -51.0142  -27.0917   16.9306 N.am      10 UNK        -0.4242 
     38 C         -49.8419  -26.9101   17.5491 C.2       10 UNK         0.5072 
     39 O         -49.6579  -27.1211   18.7491 O.2       10 UNK        -0.5224 
     40 CA        -48.6683  -26.3921   16.6973 C.3       9 UNK         0.0343 
     41 CB        -47.8407  -27.5608   16.1404 C.3       9 UNK        -0.2003 
     42 N         -49.0767  -25.5073   15.6005 N.am      9 UNK        -0.4272 
     43 C         -49.5514  -24.2628   15.7728 C.2       9 UNK         0.4988 
     44 O         -49.7077  -23.7382   16.8760 O.2       9 UNK        -0.5108 
     45 CA        -49.8872  -23.4531   14.5113 C.3       8 UNK         0.0248 
     46 CB        -48.6131  -22.8352   13.9123 C.3       8 UNK        -0.2001 
     47 N         -50.5484  -24.2832   13.5054 N.am      8 UNK        -0.4140 
     48 C         -51.8664  -24.2805   13.2559 C.2       8 UNK         0.5028 
     49 O         -52.6647  -23.4936   13.7663 O.2       8 UNK        -0.5428 
     50 CA        -52.3976  -25.3278   12.2591 C.3       7 UNK         0.0264 
     51 CB        -52.6703  -24.6808   10.8918 C.3       7 UNK        -0.1988 
     52 N         -51.5058  -26.4801   12.0944 N.am      7 UNK        -0.4454 
     53 C         -51.2929  -27.4016   13.0491 C.2       7 UNK         0.5027 
     54 O         -51.8672  -27.3878   14.1350 O.2       7 UNK        -0.5083 
     55 CA        -50.2468  -28.5051   12.7806 C.3       6 UNK         0.0844 
     56 C56       -50.9427  -29.8531   12.4438 C.3       14 UNK        -0.0967 
     57 S57       -49.8774  -31.0676   11.5760 S.3       14 UNK        -0.2604 
     58 C58       -50.9338  -31.6512   10.2027 C.3       14 UNK         0.0134 
     59 N         -49.2243  -28.0998   11.8124 N.am      6 UNK        -0.4116 
     60 C         -48.3702  -27.0799   11.9696 C.2       5 UNK         0.5034 
     61 O         -48.3860  -26.3217   12.9426 O.2       5 UNK        -0.5045 
     62 CA        -47.3587  -26.8211   10.8382 C.3       5 UNK         0.0224 
     63 CB        -47.2860  -27.9459    9.7831 C.3       5 UNK        -0.1978 
     64 N         -47.5972  -25.5296   10.1835 N.am      5 UNK        -0.4737 
     65 C         -48.7550  -25.0782    9.6735 C.2       4 UNK         0.5027 
     66 O         -49.8088  -25.7146    9.6791 O.2       4 UNK        -0.5211 
     67 CA        -48.7214  -23.6698    9.0558 C.3       4 UNK         0.0297 
     68 CB        -48.8558  -22.5977   10.1488 C.3       4 UNK        -0.1993 
     69 N         -47.4922  -23.4434    8.2879 N.am      4 UNK        -0.4486 
     70 C         -47.2684  -23.9743    7.0784 C.2       3 UNK         0.4961 
     71 O         -48.1382  -24.5548    6.4285 O.2       3 UNK        -0.5105 
     72 CA        -45.8527  -23.8201    6.4954 C.3       3 UNK         0.0299 
     73 CB        -44.7458  -24.0427    7.5463 C.3       3 UNK        -0.1972 
     74 N         -45.6712  -24.7817    5.4085 N.am      3 UNK        -0.4305 
     75 C         -45.0435  -24.5457    4.2482 C.2       2 UNK         0.5006 
     76 O         -44.5199  -23.4667    3.9661 O.2       2 UNK        -0.5106 
     77 CA        -44.9577  -25.6982    3.2244 C.3       2 UNK         0.0296 
     78 CB        -43.5400  -26.2943    3.2071 C.3       2 UNK        -0.2002 
     79 N         -45.9187  -26.7721    3.4819 N.am      2 UNK        -0.4032 
     80 C         -47.2331  -26.7045    3.2290 C.2       1 UNK         0.5000 
     81 O         -47.7412  -25.7903    2.5759 O.2       1 UNK        -0.5238 
     82 H82       -45.3385  -29.5311    7.0146 H         1 UNK         0.0889 
     83 H83       -46.3268  -30.6331    6.0550 H         1 UNK         0.0889 
     84 H84       -46.9867  -29.9089    7.5232 H         1 UNK         0.0889 
     85 H85       -47.5118  -29.7456    4.3835 H         1 UNK         0.3028 
     86 H86       -48.4468  -28.4135    2.9332 H         1 UNK         0.0864 
     87 H87       -49.1652  -26.4456    5.1428 H         1 UNK         0.0720 
     88 H88       -50.0076  -26.7006    3.6464 H         1 UNK         0.0720 
     89 H89       -50.8118  -26.7694    6.9641 H         1 UNK         0.0814 
     90 H90       -49.4404  -27.7980    7.2692 H         1 UNK         0.0814 
     91 H91       -49.7232  -29.9833    8.4023 H         1 UNK         0.1469 
     92 H92       -53.5157  -30.7997   10.2287 H         1 UNK         0.1381 
     93 H93       -53.1066  -27.4880    7.5412 H         1 UNK         0.1206 
     94 H94       -55.3445  -28.3125    8.2214 H         1 UNK         0.0813 
     95 H95       -55.5248  -29.6361    9.3407 H         1 UNK         0.0813 
     96 H96       -55.0141  -29.6180   11.6875 H         1 UNK         0.0638 
     97 H97       -53.8668  -28.4667   12.3215 H         1 UNK         0.0638 
     98 H98       -56.8946  -28.3193   12.6975 H         1 UNK         0.0568 
     99 H99       -56.1842  -29.4927   16.2663 H         1 UNK         0.3450 
    100 H100      -56.5101  -27.8748   15.6896 H         1 UNK         0.3450 
    101 H101      -54.9050  -26.6903   14.1906 H         1 UNK         0.2987 
    102 H102      -55.4242  -24.0385   13.5273 H         1 UNK         0.0766 
    103 H103      -57.1263  -22.5816   14.6369 H         1 UNK         0.0798 
    104 H104      -58.2473  -23.9404   14.7169 H         1 UNK         0.0798 
    105 H105      -57.7568  -23.2869   13.1595 H         1 UNK         0.0798 
    106 H106      -54.7586  -24.2481   15.6356 H         1 UNK         0.3198 
    107 H107      -55.0223  -24.2655   17.9123 H         1 UNK         0.0843 
    108 H108      -56.9019  -26.3940   19.0677 H         1 UNK         0.0831 
    109 H109      -57.2553  -24.6758   18.9648 H         1 UNK         0.0831 
    110 H110      -55.9401  -25.2343   19.9847 H         1 UNK         0.0831 
    111 H111      -54.5938  -27.0245   18.6112 H         1 UNK         0.3133 
    112 H112      -52.1562  -27.4515   18.6689 H         1 UNK         0.0566 
    113 H113      -53.7220  -29.0347   17.6062 H         1 UNK         0.0814 
    114 H114      -53.0837  -28.6897   16.0091 H         1 UNK         0.0814 
    115 H115      -52.0900  -29.5297   17.1958 H         1 UNK         0.0814 
    116 H116      -51.1011  -26.8564   15.9465 H         1 UNK         0.3091 
    117 H117      -48.0194  -25.8139   17.3587 H         1 UNK         0.0702 
    118 H118      -46.9944  -27.2058   15.5517 H         1 UNK         0.0785 
    119 H119      -48.4381  -28.2161   15.5093 H         1 UNK         0.0785 
    120 H120      -47.4392  -28.1712   16.9504 H         1 UNK         0.0785 
    121 H121      -48.9041  -25.8426   14.6563 H         1 UNK         0.2998 
    122 H122      -50.5434  -22.6343   14.8140 H         1 UNK         0.0697 
    123 H123      -47.9375  -23.5943   13.5159 H         1 UNK         0.0825 
    124 H124      -48.0628  -22.2676   14.6641 H         1 UNK         0.0825 
    125 H125      -48.8563  -22.1444   13.1059 H         1 UNK         0.0825 
    126 H126      -49.9718  -24.9778   13.0455 H         1 UNK         0.3029 
    127 H127      -53.3461  -25.6982   12.6496 H         1 UNK         0.0897 
    128 H128      -53.4591  -23.9318   10.9696 H         1 UNK         0.0792 
    129 H129      -52.9926  -25.4178   10.1562 H         1 UNK         0.0792 
    130 H130      -51.7872  -24.1800   10.4962 H         1 UNK         0.0792 
    131 H131      -50.9802  -26.5257   11.2258 H         1 UNK         0.3086 
    132 H132      -49.7155  -28.6582   13.7197 H         1 UNK         0.0583 
    133 H133      -51.2967  -30.3169   13.3665 H         1 UNK         0.1020 
    134 H134      -51.8448  -29.6772   11.8644 H         1 UNK         0.1020 
    135 H135      -50.3363  -32.2770    9.5384 H         1 UNK         0.0694 
    136 H136      -51.7121  -32.2982   10.6106 H         1 UNK         0.0694 
    137 H137      -49.1656  -28.6637   10.9774 H         1 UNK         0.2989 
    138 H138      -46.3823  -26.7555   11.3209 H         1 UNK         0.1055 
    139 H139      -47.0638  -28.9109   10.2409 H         1 UNK         0.0806 
    140 H140      -46.4925  -27.7459    9.0631 H         1 UNK         0.0806 
    141 H141      -48.2153  -28.0435    9.2236 H         1 UNK         0.0806 
    142 H142      -46.8017  -24.9095   10.1506 H         1 UNK         0.3061 
    143 H143      -49.5801  -23.5798    8.3864 H         1 UNK         0.0734 
    144 H144      -48.9274  -21.5994    9.7171 H         1 UNK         0.0832 
    145 H145      -49.7560  -22.7566   10.7440 H         1 UNK         0.0832 
    146 H146      -48.0067  -22.6073   10.8327 H         1 UNK         0.0832 
    147 H147      -46.7476  -22.9367    8.7440 H         1 UNK         0.3156 
    148 H148      -45.7790  -22.8021    6.1078 H         1 UNK         0.0589 
    149 H149      -44.8471  -25.0135    8.0341 H         1 UNK         0.0808 
    150 H150      -43.7566  -24.0048    7.0893 H         1 UNK         0.0808 
    151 H151      -44.7622  -23.2759    8.3209 H         1 UNK         0.0808 
    152 H152      -46.1263  -25.6797    5.5629 H         1 UNK         0.3098 
    153 H153      -45.1628  -25.2764    2.2382 H         1 UNK         0.0720 
    154 H154      -43.4440  -27.0688    2.4458 H         1 UNK         0.0791 
    155 H155      -43.2744  -26.7328    4.1699 H         1 UNK         0.0791 
    156 H156      -42.7969  -25.5279    2.9823 H         1 UNK         0.0791 
    157 H157      -45.5907  -27.5535    4.0309 H         1 UNK         0.3028 
@<TRIPOS>BOND
     1    1    2 1    
     2    1   82 1    
     3    1   83 1    
     4    1   84 1    
     5    2    3 2    
     6    2    4 am   BACKBONE|DICT|INTERRES
     7    4    5 1    
     8    4   85 1    
     9    5    6 1    
    10    5   80 1    
    11    5   86 1    
    12    6    7 1    
    13    6   87 1    
    14    6   88 1    
    15    7    8 1    
    16    8    9 1    
    17    8   89 1    
    18    8   90 1    
    19    9   10 ar   
    20    9   14 ar   
    21   10   11 ar   
    22   10   91 1    
    23   11   12 ar   
    24   11   58 1    
    25   12   13 ar   
    26   12   92 1    
    27   13   14 ar   
    28   13   15 1    
    29   14   93 1    
    30   15   16 1    
    31   15   94 1    
    32   15   95 1    
    33   16   17 1    
    34   17   18 1    
    35   17   96 1    
    36   17   97 1    
    37   18   19 1    
    38   18   22 1    
    39   18   98 1    
    40   19   20 am   BACKBONE|DICT|INTERRES
    41   19   21 2    
    42   20   99 1    
    43   20  100 1    
    44   22   23 am   BACKBONE|DICT|INTERRES
    45   22  101 1    
    46   23   24 2    
    47   23   25 1    
    48   25   26 1    
    49   25   27 1    
    50   25  102 1    
    51   26  103 1    
    52   26  104 1    
    53   26  105 1    
    54   27   28 am   BACKBONE|DICT|INTERRES
    55   27  106 1    
    56   28   29 2    
    57   28   30 1    
    58   30   31 1    
    59   30   32 1    
    60   30  107 1    
    61   31  108 1    
    62   31  109 1    
    63   31  110 1    
    64   32   33 am   BACKBONE|DICT|INTERRES
    65   32  111 1    
    66   33   34 2    
    67   33   35 1    
    68   35   36 1    
    69   35   37 1    
    70   35  112 1    
    71   36  113 1    
    72   36  114 1    
    73   36  115 1    
    74   37   38 am   BACKBONE|DICT|INTERRES
    75   37  116 1    
    76   38   39 2    
    77   38   40 1    
    78   40   41 1    
    79   40   42 1    
    80   40  117 1    
    81   41  118 1    
    82   41  119 1    
    83   41  120 1    
    84   42   43 am   BACKBONE|DICT|INTERRES
    85   42  121 1    
    86   43   44 2    
    87   43   45 1    
    88   45   46 1    
    89   45   47 1    
    90   45  122 1    
    91   46  123 1    
    92   46  124 1    
    93   46  125 1    
    94   47   48 am   BACKBONE|DICT|INTERRES
    95   47  126 1    
    96   48   49 2    
    97   48   50 1    
    98   50   51 1    
    99   50   52 1    
   100   50  127 1    
   101   51  128 1    
   102   51  129 1    
   103   51  130 1    
   104   52   53 am   BACKBONE|DICT|INTERRES
   105   52  131 1    
   106   53   54 2    
   107   53   55 1    
   108   55   56 1    
   109   55   59 1    
   110   55  132 1    
   111   56   57 1    
   112   56  133 1    
   113   56  134 1    
   114   57   58 1    
   115   58  135 1    
   116   58  136 1    
   117   59   60 am   BACKBONE|DICT|INTERRES
   118   59  137 1    
   119   60   61 2    
   120   60   62 1    
   121   62   63 1    
   122   62   64 1    
   123   62  138 1    
   124   63  139 1    
   125   63  140 1    
   126   63  141 1    
   127   64   65 am   BACKBONE|DICT|INTERRES
   128   64  142 1    
   129   65   66 2    
   130   65   67 1    
   131   67   68 1    
   132   67   69 1    
   133   67  143 1    
   134   68  144 1    
   135   68  145 1    
   136   68  146 1    
   137   69   70 am   BACKBONE|DICT|INTERRES
   138   69  147 1    
   139   70   71 2    
   140   70   72 1    
   141   72   73 1    
   142   72   74 1    
   143   72  148 1    
   144   73  149 1    
   145   73  150 1    
   146   73  151 1    
   147   74   75 am   BACKBONE|DICT|INTERRES
   148   74  152 1    
   149   75   76 2    
   150   75   77 1    
   151   77   78 1    
   152   77   79 1    
   153   77  153 1    
   154   78  154 1    
   155   78  155 1    
   156   78  156 1    
   157   79   80 am   BACKBONE|DICT|INTERRES
   158   79  157 1    
   159   80   81 2    
@<TRIPOS>SUBSTRUCTURE
     1 UNK         1 GROUP             0       ****    0 ROOT    
