@<TRIPOS>MOLECULE
3R207
157   159    1
SMALL
USER_CHARGES


@<TRIPOS>ATOM
      1 CA        -48.2624  -23.7438    2.1079 C.3       0 UNK        -0.1975 
      2 C         -49.0992  -23.9325    3.3639 C.2       0 UNK         0.4852 
      3 O         -49.6290  -22.9581    3.9008 O.2       0 UNK        -0.5216 
      4 N         -49.2188  -25.1769    3.8457 N.am      1 UNK        -0.4461 
      5 CA        -49.9554  -25.5499    5.0570 C.3       1 UNK         0.0864 
      6 C6        -50.3773  -27.0426    5.0077 C.3       14 UNK        -0.0898 
      7 S7        -51.6428  -27.4602    6.2576 S.3       14 UNK        -0.2598 
      8 C8        -50.9972  -29.0367    6.9211 C.3       14 UNK         0.0286 
      9 C9        -51.4957  -29.3805    8.3259 C.ar      14 UNK        -0.0844 
     10 C10       -50.6288  -30.0270    9.2125 C.ar      14 UNK        -0.0881 
     11 C11       -51.0318  -30.3447   10.5131 C.ar      14 UNK        -0.0643 
     12 C12       -52.3243  -30.0127   10.9304 C.ar      14 UNK        -0.0930 
     13 C13       -53.2146  -29.3915   10.0481 C.ar      14 UNK        -0.0827 
     14 C14       -52.7953  -29.0778    8.7509 C.ar      14 UNK        -0.1249 
     15 C15       -54.6488  -29.1125   10.4710 C.3       14 UNK         0.0141 
     16 S16       -54.8292  -27.5039   11.3030 S.3       14 UNK        -0.2313 
     17 C17       -56.6459  -27.4546   11.5181 C.3       14 UNK        -0.0915 
     18 CA        -57.1157  -27.4166   13.0040 C.3       13 UNK         0.0968 
     19 C         -58.6661  -27.3390   13.1403 C.2       13 UNK         0.5732 
     20 N         -59.2741  -27.9532   14.1482 N.am      13 UNK        -0.7310 
     21 O         -59.3305  -26.6843   12.3403 O.2       13 UNK        -0.5035 
     22 N         -56.4713  -28.4329   13.8532 N.am      13 UNK        -0.4233 
     23 C         -56.5037  -29.7621   13.6770 C.2       13 UNK         0.4989 
     24 O         -57.1918  -30.3251   12.8250 O.2       13 UNK        -0.4996 
     25 CA        -55.5748  -30.5980   14.5769 C.3       12 UNK         0.0216 
     26 CB        -55.0477  -31.8608   13.8689 C.3       12 UNK        -0.1964 
     27 N         -54.4409  -29.7855   15.0227 N.am      12 UNK        -0.4276 
     28 C         -54.0419  -29.6374   16.2892 C.2       12 UNK         0.5020 
     29 O         -54.4921  -30.2828   17.2362 O.2       12 UNK        -0.5489 
     30 CA        -52.9786  -28.5555   16.5473 C.3       11 UNK         0.0294 
     31 CB        -51.5687  -29.1607   16.4794 C.3       11 UNK        -0.2019 
     32 N         -53.0531  -27.4011   15.6416 N.am      11 UNK        -0.4493 
     33 C         -54.0926  -26.5599   15.5296 C.2       11 UNK         0.4932 
     34 O         -55.1876  -26.7555   16.0590 O.2       11 UNK        -0.5029 
     35 CA        -53.8700  -25.3009   14.6695 C.3       10 UNK         0.0280 
     36 CB        -54.9452  -24.2161   14.8907 C.3       10 UNK        -0.1976 
     37 N         -52.5239  -24.7412   14.8316 N.am      10 UNK        -0.4242 
     38 C         -51.9470  -24.2844   15.9553 C.2       10 UNK         0.5072 
     39 O         -52.5211  -24.2021   17.0418 O.2       10 UNK        -0.5224 
     40 CA        -50.4635  -23.8716   15.8696 C.3       9 UNK         0.0343 
     41 CB        -49.5781  -24.9453   16.5234 C.3       9 UNK        -0.2003 
     42 N         -49.9954  -23.6477   14.5001 N.am      9 UNK        -0.4272 
     43 C         -50.3426  -22.6071   13.7299 C.2       9 UNK         0.4988 
     44 O         -51.0154  -21.6541   14.1230 O.2       9 UNK        -0.5108 
     45 CA        -49.9013  -22.6676   12.2582 C.3       8 UNK         0.0248 
     46 CB        -48.4737  -22.1240   12.0864 C.3       8 UNK        -0.2001 
     47 N         -49.9843  -24.0231   11.7062 N.am      8 UNK        -0.4140 
     48 C         -51.1280  -24.6916   11.4923 C.2       8 UNK         0.5028 
     49 O         -52.2447  -24.2350   11.7299 O.2       8 UNK        -0.5428 
     50 CA        -50.9956  -26.1166   10.9366 C.3       7 UNK         0.0264 
     51 CB        -50.6063  -26.0543    9.4576 C.3       7 UNK        -0.1988 
     52 N         -49.9930  -26.9069   11.6455 N.am      7 UNK        -0.4454 
     53 C         -50.0565  -27.2846   12.9290 C.2       7 UNK         0.5027 
     54 O         -51.0233  -27.0815   13.6638 O.2       7 UNK        -0.5083 
     55 CA        -48.7896  -27.9463   13.5098 C.3       6 UNK         0.0844 
     56 C56       -48.8590  -29.4916   13.4418 C.3       14 UNK        -0.0967 
     57 S57       -48.5520  -30.1975   11.7840 S.3       14 UNK        -0.2604 
     58 C58       -50.0889  -31.1121   11.4306 C.3       14 UNK         0.0134 
     59 N         -47.5548  -27.4081   12.9234 N.am      6 UNK        -0.4116 
     60 C         -47.1636  -26.1282   12.9810 C.2       5 UNK         0.5034 
     61 O         -47.7677  -25.2642   13.6160 O.2       5 UNK        -0.5045 
     62 CA        -45.9490  -25.7127   12.1353 C.3       5 UNK         0.0224 
     63 CB        -44.6243  -26.0147   12.8618 C.3       5 UNK        -0.1978 
     64 N         -45.9657  -26.2405   10.7613 N.am      5 UNK        -0.4737 
     65 C         -45.7923  -27.5043   10.3405 C.2       4 UNK         0.5027 
     66 O         -45.5947  -28.4492   11.1035 O.2       4 UNK        -0.5211 
     67 CA        -45.8887  -27.7826    8.8265 C.3       4 UNK         0.0297 
     68 CB        -47.1791  -28.5569    8.5103 C.3       4 UNK        -0.1993 
     69 N         -45.8427  -26.5733    7.9998 N.am      4 UNK        -0.4486 
     70 C         -44.7473  -25.8207    7.8107 C.2       3 UNK         0.4961 
     71 O         -43.6322  -26.1288    8.2325 O.2       3 UNK        -0.5105 
     72 CA        -44.9089  -24.4880    7.0502 C.3       3 UNK         0.0299 
     73 CB        -44.4006  -24.6321    5.6064 C.3       3 UNK        -0.1972 
     74 N         -46.2755  -23.9582    7.0199 N.am      3 UNK        -0.4305 
     75 C         -47.0321  -23.6536    8.0845 C.2       2 UNK         0.5006 
     76 O         -46.6486  -23.7446    9.2515 O.2       2 UNK        -0.5106 
     77 CA        -48.4865  -23.2359    7.8025 C.3       2 UNK         0.0296 
     78 CB        -48.5824  -21.7083    7.6676 C.3       2 UNK        -0.2002 
     79 N         -49.1081  -23.8654    6.6265 N.am      2 UNK        -0.4032 
     80 C         -49.1383  -25.1717    6.3131 C.2       1 UNK         0.5000 
     81 O         -48.5224  -26.0400    6.9346 O.2       1 UNK        -0.5238 
     82 H82       -47.8556  -24.6866    1.7430 H         1 UNK         0.0889 
     83 H83       -47.4300  -23.0702    2.3097 H         1 UNK         0.0889 
     84 H84       -48.8698  -23.3074    1.3156 H         1 UNK         0.0889 
     85 H85       -48.7422  -25.9342    3.3766 H         1 UNK         0.3028 
     86 H86       -50.8744  -24.9595    5.0819 H         1 UNK         0.0864 
     87 H87       -50.8137  -27.2695    4.0336 H         1 UNK         0.0720 
     88 H88       -49.5073  -27.6947    5.1005 H         1 UNK         0.0720 
     89 H89       -49.9078  -28.9830    6.9358 H         1 UNK         0.0814 
     90 H90       -51.2612  -29.8458    6.2395 H         1 UNK         0.0814 
     91 H91       -49.6310  -30.2922    8.8915 H         1 UNK         0.1469 
     92 H92       -52.6491  -30.2661   11.9296 H         1 UNK         0.1381 
     93 H93       -53.4869  -28.5999    8.0711 H         1 UNK         0.1206 
     94 H94       -55.3005  -29.1369    9.5961 H         1 UNK         0.0813 
     95 H95       -54.9993  -29.9066   11.1301 H         1 UNK         0.0813 
     96 H96       -57.0996  -28.3029   11.0033 H         1 UNK         0.0638 
     97 H97       -57.0030  -26.5675   10.9924 H         1 UNK         0.0638 
     98 H98       -56.7696  -26.4668   13.4100 H         1 UNK         0.0568 
     99 H99       -60.2760  -27.8875   14.2336 H         1 UNK         0.3450 
    100 H100      -58.7427  -28.4840   14.8189 H         1 UNK         0.3450 
    101 H101      -55.9571  -28.0612   14.6435 H         1 UNK         0.2987 
    102 H102      -56.1768  -30.9085   15.4332 H         1 UNK         0.0766 
    103 H103      -54.3926  -32.4357   14.5236 H         1 UNK         0.0798 
    104 H104      -54.4874  -31.6149   12.9668 H         1 UNK         0.0798 
    105 H105      -55.8667  -32.5188   13.5761 H         1 UNK         0.0798 
    106 H106      -54.0033  -29.2038   14.3212 H         1 UNK         0.3198 
    107 H107      -53.1398  -28.1788   17.5595 H         1 UNK         0.0843 
    108 H108      -51.3607  -29.5693   15.4916 H         1 UNK         0.0831 
    109 H109      -51.4582  -29.9739   17.1982 H         1 UNK         0.0831 
    110 H110      -50.8029  -28.4192   16.7078 H         1 UNK         0.0831 
    111 H111      -52.2249  -27.2012   15.0827 H         1 UNK         0.3133 
    112 H112      -53.9377  -25.6267   13.6308 H         1 UNK         0.0566 
    113 H113      -54.7681  -23.3506   14.2523 H         1 UNK         0.0814 
    114 H114      -55.9409  -24.5919   14.6554 H         1 UNK         0.0814 
    115 H115      -54.9666  -23.8719   15.9251 H         1 UNK         0.0814 
    116 H116      -51.9530  -24.7743   13.9970 H         1 UNK         0.3091 
    117 H117      -50.3467  -22.9405   16.4279 H         1 UNK         0.0702 
    118 H118      -48.5267  -24.6573   16.5085 H         1 UNK         0.0785 
    119 H119      -49.6698  -25.9049   16.0140 H         1 UNK         0.0785 
    120 H120      -49.8576  -25.1017   17.5661 H         1 UNK         0.0785 
    121 H121      -49.3598  -24.3426   14.1161 H         1 UNK         0.2998 
    122 H122      -50.5778  -22.0319   11.6829 H         1 UNK         0.0697 
    123 H123      -47.7433  -22.7139   12.6408 H         1 UNK         0.0825 
    124 H124      -48.4033  -21.0975   12.4486 H         1 UNK         0.0825 
    125 H125      -48.1732  -22.1177   11.0387 H         1 UNK         0.0825 
    126 H126      -49.1092  -24.4883   11.5185 H         1 UNK         0.3029 
    127 H127      -51.9599  -26.6200   11.0304 H         1 UNK         0.0897 
    128 H128      -50.5483  -27.0472    9.0236 H         1 UNK         0.0792 
    129 H129      -51.3316  -25.4843    8.8757 H         1 UNK         0.0792 
    130 H130      -49.6286  -25.5964    9.3224 H         1 UNK         0.0792 
    131 H131      -49.1708  -27.1701   11.1241 H         1 UNK         0.3086 
    132 H132      -48.7688  -27.6765   14.5675 H         1 UNK         0.0583 
    133 H133      -48.1042  -29.9076   14.1106 H         1 UNK         0.1020 
    134 H134      -49.8109  -29.8504   13.8322 H         1 UNK         0.1020 
    135 H135      -49.8198  -32.0464   10.9362 H         1 UNK         0.0694 
    136 H136      -50.5855  -31.4013   12.3574 H         1 UNK         0.0694 
    137 H137      -46.9931  -28.0486   12.3675 H         1 UNK         0.2989 
    138 H138      -46.0116  -24.6286   12.0233 H         1 UNK         0.1055 
    139 H139      -44.5874  -25.5054   13.8257 H         1 UNK         0.0806 
    140 H140      -43.7680  -25.6716   12.2811 H         1 UNK         0.0806 
    141 H141      -44.4928  -27.0794   13.0561 H         1 UNK         0.0806 
    142 H142      -46.1425  -25.5357   10.0505 H         1 UNK         0.3061 
    143 H143      -45.0384  -28.4122    8.5566 H         1 UNK         0.0734 
    144 H144      -47.2572  -28.7838    7.4470 H         1 UNK         0.0832 
    145 H145      -47.2042  -29.5061    9.0468 H         1 UNK         0.0832 
    146 H146      -48.0687  -27.9955    8.7982 H         1 UNK         0.0832 
    147 H147      -46.7286  -26.2676    7.6015 H         1 UNK         0.3156 
    148 H148      -44.2874  -23.7499    7.5611 H         1 UNK         0.0589 
    149 H149      -45.0044  -25.3385    5.0352 H         1 UNK         0.0808 
    150 H150      -44.4126  -23.6764    5.0820 H         1 UNK         0.0808 
    151 H151      -43.3717  -24.9947    5.5886 H         1 UNK         0.0808 
    152 H152      -46.6977  -23.8635    6.1083 H         1 UNK         0.3098 
    153 H153      -49.0772  -23.5225    8.6724 H         1 UNK         0.0720 
    154 H154      -49.6199  -21.3800    7.6026 H         1 UNK         0.0791 
    155 H155      -48.0601  -21.3480    6.7803 H         1 UNK         0.0791 
    156 H156      -48.1415  -21.2092    8.5319 H         1 UNK         0.0791 
    157 H157      -49.5629  -23.2372    5.9724 H         1 UNK         0.3028 
@<TRIPOS>BOND
     1    1    2 1    
     2    1   82 1    
     3    1   83 1    
     4    1   84 1    
     5    2    3 2    
     6    2    4 am   BACKBONE|DICT|INTERRES
     7    4    5 1    
     8    4   85 1    
     9    5    6 1    
    10    5   80 1    
    11    5   86 1    
    12    6    7 1    
    13    6   87 1    
    14    6   88 1    
    15    7    8 1    
    16    8    9 1    
    17    8   89 1    
    18    8   90 1    
    19    9   10 ar   
    20    9   14 ar   
    21   10   11 ar   
    22   10   91 1    
    23   11   12 ar   
    24   11   58 1    
    25   12   13 ar   
    26   12   92 1    
    27   13   14 ar   
    28   13   15 1    
    29   14   93 1    
    30   15   16 1    
    31   15   94 1    
    32   15   95 1    
    33   16   17 1    
    34   17   18 1    
    35   17   96 1    
    36   17   97 1    
    37   18   19 1    
    38   18   22 1    
    39   18   98 1    
    40   19   20 am   BACKBONE|DICT|INTERRES
    41   19   21 2    
    42   20   99 1    
    43   20  100 1    
    44   22   23 am   BACKBONE|DICT|INTERRES
    45   22  101 1    
    46   23   24 2    
    47   23   25 1    
    48   25   26 1    
    49   25   27 1    
    50   25  102 1    
    51   26  103 1    
    52   26  104 1    
    53   26  105 1    
    54   27   28 am   BACKBONE|DICT|INTERRES
    55   27  106 1    
    56   28   29 2    
    57   28   30 1    
    58   30   31 1    
    59   30   32 1    
    60   30  107 1    
    61   31  108 1    
    62   31  109 1    
    63   31  110 1    
    64   32   33 am   BACKBONE|DICT|INTERRES
    65   32  111 1    
    66   33   34 2    
    67   33   35 1    
    68   35   36 1    
    69   35   37 1    
    70   35  112 1    
    71   36  113 1    
    72   36  114 1    
    73   36  115 1    
    74   37   38 am   BACKBONE|DICT|INTERRES
    75   37  116 1    
    76   38   39 2    
    77   38   40 1    
    78   40   41 1    
    79   40   42 1    
    80   40  117 1    
    81   41  118 1    
    82   41  119 1    
    83   41  120 1    
    84   42   43 am   BACKBONE|DICT|INTERRES
    85   42  121 1    
    86   43   44 2    
    87   43   45 1    
    88   45   46 1    
    89   45   47 1    
    90   45  122 1    
    91   46  123 1    
    92   46  124 1    
    93   46  125 1    
    94   47   48 am   BACKBONE|DICT|INTERRES
    95   47  126 1    
    96   48   49 2    
    97   48   50 1    
    98   50   51 1    
    99   50   52 1    
   100   50  127 1    
   101   51  128 1    
   102   51  129 1    
   103   51  130 1    
   104   52   53 am   BACKBONE|DICT|INTERRES
   105   52  131 1    
   106   53   54 2    
   107   53   55 1    
   108   55   56 1    
   109   55   59 1    
   110   55  132 1    
   111   56   57 1    
   112   56  133 1    
   113   56  134 1    
   114   57   58 1    
   115   58  135 1    
   116   58  136 1    
   117   59   60 am   BACKBONE|DICT|INTERRES
   118   59  137 1    
   119   60   61 2    
   120   60   62 1    
   121   62   63 1    
   122   62   64 1    
   123   62  138 1    
   124   63  139 1    
   125   63  140 1    
   126   63  141 1    
   127   64   65 am   BACKBONE|DICT|INTERRES
   128   64  142 1    
   129   65   66 2    
   130   65   67 1    
   131   67   68 1    
   132   67   69 1    
   133   67  143 1    
   134   68  144 1    
   135   68  145 1    
   136   68  146 1    
   137   69   70 am   BACKBONE|DICT|INTERRES
   138   69  147 1    
   139   70   71 2    
   140   70   72 1    
   141   72   73 1    
   142   72   74 1    
   143   72  148 1    
   144   73  149 1    
   145   73  150 1    
   146   73  151 1    
   147   74   75 am   BACKBONE|DICT|INTERRES
   148   74  152 1    
   149   75   76 2    
   150   75   77 1    
   151   77   78 1    
   152   77   79 1    
   153   77  153 1    
   154   78  154 1    
   155   78  155 1    
   156   78  156 1    
   157   79   80 am   BACKBONE|DICT|INTERRES
   158   79  157 1    
   159   80   81 2    
@<TRIPOS>SUBSTRUCTURE
     1 UNK         1 GROUP             0       ****    0 ROOT    
