@<TRIPOS>MOLECULE
3R207
157   159    1
SMALL
USER_CHARGES


@<TRIPOS>ATOM
      1 CA        -49.0237  -26.3644    3.6020 C.3       0 UNK        -0.1975 
      2 C         -49.6609  -26.4911    4.9765 C.2       0 UNK         0.4852 
      3 O         -48.9847  -26.2684    5.9828 O.2       0 UNK        -0.5216 
      4 N         -50.9618  -26.8177    5.0254 N.am      1 UNK        -0.4461 
      5 CA        -51.8018  -27.1009    6.2066 C.3       1 UNK         0.0864 
      6 C6        -51.2995  -28.3079    7.0386 C.3       14 UNK        -0.0898 
      7 S7        -51.1912  -29.8682    6.1024 S.3       14 UNK        -0.2598 
      8 C8        -49.6888  -30.6189    6.8333 C.3       14 UNK         0.0286 
      9 C9        -49.7178  -30.8063    8.3544 C.ar      14 UNK        -0.0844 
     10 C10       -48.5094  -30.8234    9.0596 C.ar      14 UNK        -0.0881 
     11 C11       -48.4896  -30.9763   10.4504 C.ar      14 UNK        -0.0643 
     12 C12       -49.6962  -31.0856   11.1475 C.ar      14 UNK        -0.0930 
     13 C13       -50.9127  -31.0875   10.4581 C.ar      14 UNK        -0.0827 
     14 C14       -50.9132  -30.9757    9.0640 C.ar      14 UNK        -0.1249 
     15 C15       -52.2304  -31.2068   11.2114 C.3       14 UNK         0.0141 
     16 S16       -53.2467  -29.7188   10.9756 S.3       14 UNK        -0.2313 
     17 C17       -54.6354  -30.0358   12.1090 C.3       14 UNK        -0.0915 
     18 CA        -55.7793  -29.0102   11.9078 C.3       13 UNK         0.0968 
     19 C         -56.9944  -29.3431   12.8142 C.2       13 UNK         0.5732 
     20 N         -57.1229  -28.7450   13.9915 N.am      13 UNK        -0.7310 
     21 O         -57.8384  -30.1529   12.4375 O.2       13 UNK        -0.5035 
     22 N         -55.3021  -27.6249   12.0333 N.am      13 UNK        -0.4233 
     23 C         -55.9066  -26.5646   11.4853 C.2       13 UNK         0.4989 
     24 O         -56.9586  -26.6233   10.8449 O.2       13 UNK        -0.4996 
     25 CA        -55.1865  -25.2190   11.6787 C.3       12 UNK         0.0216 
     26 CB        -55.9331  -24.0165   11.0613 C.3       12 UNK        -0.1964 
     27 N         -54.8515  -24.9894   13.0879 N.am      12 UNK        -0.4276 
     28 C         -55.7026  -24.8036   14.1076 C.2       12 UNK         0.5020 
     29 O         -56.9266  -24.7315   13.9819 O.2       12 UNK        -0.5489 
     30 CA        -55.0704  -24.6686   15.5060 C.3       11 UNK         0.0294 
     31 CB        -56.0999  -24.7988   16.6495 C.3       11 UNK        -0.2019 
     32 N         -53.9337  -25.5708   15.7268 N.am      11 UNK        -0.4493 
     33 C         -53.9418  -26.9133   15.7300 C.2       11 UNK         0.4932 
     34 O         -54.9425  -27.5805   15.4663 O.2       11 UNK        -0.5029 
     35 CA        -52.6270  -27.6472   16.0804 C.3       10 UNK         0.0280 
     36 CB        -52.4099  -28.8778   15.1814 C.3       10 UNK        -0.1976 
     37 N         -51.4407  -26.7906   16.0066 N.am      10 UNK        -0.4242 
     38 C         -51.0184  -25.9452   16.9572 C.2       10 UNK         0.5072 
     39 O         -51.5338  -25.8539   18.0714 O.2       10 UNK        -0.5224 
     40 CA        -49.8713  -24.9893   16.5751 C.3       9 UNK         0.0343 
     41 CB        -48.5050  -25.6181   16.8898 C.3       9 UNK        -0.2003 
     42 N         -49.9135  -24.5783   15.1668 N.am      9 UNK        -0.4272 
     43 C         -50.9159  -23.8869   14.6022 C.2       9 UNK         0.4988 
     44 O         -51.8795  -23.4461   15.2284 O.2       9 UNK        -0.5108 
     45 CA        -50.8768  -23.7212   13.0743 C.3       8 UNK         0.0248 
     46 CB        -49.9711  -22.5492   12.6660 C.3       8 UNK        -0.2001 
     47 N         -50.4527  -24.9504   12.3986 N.am      8 UNK        -0.4140 
     48 C         -51.1731  -26.0815   12.3739 C.2       8 UNK         0.5028 
     49 O         -52.2961  -26.1864   12.8659 O.2       8 UNK        -0.5428 
     50 CA        -50.5227  -27.3103   11.7234 C.3       7 UNK         0.0264 
     51 CB        -50.6827  -27.2665   10.2039 C.3       7 UNK        -0.1988 
     52 N         -49.1061  -27.4489   12.0419 N.am      7 UNK        -0.4454 
     53 C         -48.6191  -27.7232   13.2582 C.2       7 UNK         0.5027 
     54 O         -49.3221  -27.9334   14.2457 O.2       7 UNK        -0.5083 
     55 CA        -47.0840  -27.6844   13.4026 C.3       6 UNK         0.0844 
     56 C56       -46.4409  -29.0611   13.0994 C.3       14 UNK        -0.0967 
     57 S57       -46.3265  -29.4605   11.3158 S.3       14 UNK        -0.2604 
     58 C58       -47.1599  -31.0731   11.1850 C.3       14 UNK         0.0134 
     59 N         -46.4870  -26.5985   12.6151 N.am      6 UNK        -0.4116 
     60 C         -46.7683  -25.2972   12.7536 C.2       5 UNK         0.5034 
     61 O         -47.4782  -24.8489   13.6534 O.2       5 UNK        -0.5045 
     62 CA        -46.2532  -24.3387   11.6700 C.3       5 UNK         0.0224 
     63 CB        -44.8259  -23.8481   11.9797 C.3       5 UNK        -0.1978 
     64 N         -46.3822  -24.8576   10.2986 N.am      5 UNK        -0.4737 
     65 C         -45.6756  -25.8238    9.6892 C.2       4 UNK         0.5027 
     66 O         -44.8094  -26.4868   10.2585 O.2       4 UNK        -0.5211 
     67 CA        -45.9912  -26.1299    8.2083 C.3       4 UNK         0.0297 
     68 CB        -46.7115  -27.4840    8.0839 C.3       4 UNK        -0.1993 
     69 N         -46.7946  -25.1074    7.5311 N.am      4 UNK        -0.4486 
     70 C         -46.4346  -23.8304    7.3342 C.2       3 UNK         0.4961 
     71 O         -45.3165  -23.3870    7.5971 O.2       3 UNK        -0.5105 
     72 CA        -47.5086  -22.8688    6.7905 C.3       3 UNK         0.0299 
     73 CB        -47.3325  -22.6798    5.2754 C.3       3 UNK        -0.1972 
     74 N         -48.8954  -23.2667    7.0652 N.am      3 UNK        -0.4305 
     75 C         -49.4441  -23.4900    8.2714 C.2       2 UNK         0.5006 
     76 O         -48.8306  -23.4227    9.3370 O.2       2 UNK        -0.5106 
     77 CA        -50.9086  -23.9430    8.2649 C.3       2 UNK         0.0296 
     78 CB        -51.8538  -22.7865    7.8859 C.3       2 UNK        -0.2002 
     79 N         -51.0199  -25.0693    7.3416 N.am      2 UNK        -0.4032 
     80 C         -52.0515  -25.8913    7.1414 C.2       1 UNK         0.5000 
     81 O         -53.1543  -25.7511    7.6717 O.2       1 UNK        -0.5238 
     82 H82       -49.6924  -26.7013    2.8103 H         1 UNK         0.0889 
     83 H83       -48.1160  -26.9654    3.5561 H         1 UNK         0.0889 
     84 H84       -48.7566  -25.3270    3.4050 H         1 UNK         0.0889 
     85 H85       -51.4456  -26.9418    4.1468 H         1 UNK         0.3028 
     86 H86       -52.7806  -27.3689    5.8051 H         1 UNK         0.0864 
     87 H87       -50.3184  -28.0862    7.4606 H         1 UNK         0.0720 
     88 H88       -51.9679  -28.4926    7.8817 H         1 UNK         0.0720 
     89 H89       -48.8359  -29.9970    6.5557 H         1 UNK         0.0814 
     90 H90       -49.5261  -31.5916    6.3679 H         1 UNK         0.0814 
     91 H91       -47.5742  -30.7238    8.5255 H         1 UNK         0.1469 
     92 H92       -49.6863  -31.1861   12.2241 H         1 UNK         0.1381 
     93 H93       -51.8588  -30.9876    8.5408 H         1 UNK         0.1206 
     94 H94       -52.0559  -31.3547   12.2783 H         1 UNK         0.0813 
     95 H95       -52.7760  -32.0816   10.8554 H         1 UNK         0.0813 
     96 H96       -54.2659  -30.0063   13.1346 H         1 UNK         0.0638 
     97 H97       -54.9973  -31.0509   11.9348 H         1 UNK         0.0638 
     98 H98       -56.1304  -29.1339   10.8810 H         1 UNK         0.0568 
     99 H99       -57.9192  -28.9620   14.5678 H         1 UNK         0.3450 
    100 H100      -56.3851  -28.1496   14.3570 H         1 UNK         0.3450 
    101 H101      -54.4427  -27.4884   12.5467 H         1 UNK         0.2987 
    102 H102      -54.2356  -25.3083   11.1507 H         1 UNK         0.0766 
    103 H103      -55.3827  -23.0881   11.2129 H         1 UNK         0.0798 
    104 H104      -56.9297  -23.8904   11.4850 H         1 UNK         0.0798 
    105 H105      -56.0545  -24.1491    9.9855 H         1 UNK         0.0798 
    106 H106      -53.8703  -25.1422   13.3104 H         1 UNK         0.3198 
    107 H107      -54.6630  -23.6573   15.5496 H         1 UNK         0.0843 
    108 H108      -56.5988  -25.7684   16.6364 H         1 UNK         0.0831 
    109 H109      -56.8742  -24.0351   16.5674 H         1 UNK         0.0831 
    110 H110      -55.6284  -24.6762   17.6245 H         1 UNK         0.0831 
    111 H111      -53.0497  -25.1015   15.8860 H         1 UNK         0.3133 
    112 H112      -52.7308  -28.0033   17.1070 H         1 UNK         0.0566 
    113 H113      -52.3721  -28.6047   14.1269 H         1 UNK         0.0814 
    114 H114      -51.4798  -29.3907   15.4265 H         1 UNK         0.0814 
    115 H115      -53.2167  -29.6009   15.3051 H         1 UNK         0.0814 
    116 H116      -50.9114  -26.8404   15.1433 H         1 UNK         0.3091 
    117 H117      -49.9781  -24.0879   17.1822 H         1 UNK         0.0702 
    118 H118      -47.6900  -24.9301   16.6639 H         1 UNK         0.0785 
    119 H119      -48.3389  -26.5316   16.3191 H         1 UNK         0.0785 
    120 H120      -48.4296  -25.8763   17.9469 H         1 UNK         0.0785 
    121 H121      -49.1204  -24.8450   14.5882 H         1 UNK         0.2998 
    122 H122      -51.8912  -23.4918   12.7402 H         1 UNK         0.0697 
    123 H123      -48.9372  -22.7038   12.9737 H         1 UNK         0.0825 
    124 H124      -50.3096  -21.6203   13.1267 H         1 UNK         0.0825 
    125 H125      -49.9824  -22.3956   11.5870 H         1 UNK         0.0825 
    126 H126      -49.5323  -24.9496   11.9860 H         1 UNK         0.3029 
    127 H127      -51.0365  -28.1956   12.1012 H         1 UNK         0.0897 
    128 H128      -51.7293  -27.1321    9.9272 H         1 UNK         0.0792 
    129 H129      -50.3446  -28.2040    9.7656 H         1 UNK         0.0792 
    130 H130      -50.1079  -26.4574    9.7540 H         1 UNK         0.0792 
    131 H131      -48.4488  -27.3338   11.2851 H         1 UNK         0.3086 
    132 H132      -46.8804  -27.4561   14.4509 H         1 UNK         0.0583 
    133 H133      -45.4236  -29.0691   13.4937 H         1 UNK         0.1020 
    134 H134      -46.9610  -29.8522   13.6425 H         1 UNK         0.1020 
    135 H135      -46.5047  -31.7515   10.6367 H         1 UNK         0.0694 
    136 H136      -47.2923  -31.5253   12.1684 H         1 UNK         0.0694 
    137 H137      -45.8824  -26.8706   11.8444 H         1 UNK         0.2989 
    138 H138      -46.9043  -23.4634   11.7018 H         1 UNK         0.1055 
    139 H139      -44.7914  -23.3460   12.9475 H         1 UNK         0.0806 
    140 H140      -44.4823  -23.1338   11.2313 H         1 UNK         0.0806 
    141 H141      -44.1069  -24.6668   12.0173 H         1 UNK         0.0806 
    142 H142      -47.1062  -24.4007    9.7504 H         1 UNK         0.3061 
    143 H143      -45.0359  -26.1989    7.6844 H         1 UNK         0.0734 
    144 H144      -46.1191  -28.2843    8.5288 H         1 UNK         0.0832 
    145 H145      -46.8771  -27.7526    7.0404 H         1 UNK         0.0832 
    146 H146      -47.6806  -27.4771    8.5845 H         1 UNK         0.0832 
    147 H147      -47.6960  -25.4109    7.1743 H         1 UNK         0.3156 
    148 H148      -47.3508  -21.9040    7.2765 H         1 UNK         0.0589 
    149 H149      -47.4989  -23.6107    4.7324 H         1 UNK         0.0808 
    150 H150      -48.0209  -21.9310    4.8830 H         1 UNK         0.0808 
    151 H151      -46.3223  -22.3421    5.0389 H         1 UNK         0.0808 
    152 H152      -49.4943  -23.3457    6.2564 H         1 UNK         0.3098 
    153 H153      -51.1627  -24.2901    9.2683 H         1 UNK         0.0720 
    154 H154      -52.8994  -23.0753    7.9928 H         1 UNK         0.0791 
    155 H155      -51.7035  -22.4564    6.8576 H         1 UNK         0.0791 
    156 H156      -51.6934  -21.9246    8.5350 H         1 UNK         0.0791 
    157 H157      -50.1529  -25.3533    6.8842 H         1 UNK         0.3028 
@<TRIPOS>BOND
     1    1    2 1    
     2    1   82 1    
     3    1   83 1    
     4    1   84 1    
     5    2    3 2    
     6    2    4 am   BACKBONE|DICT|INTERRES
     7    4    5 1    
     8    4   85 1    
     9    5    6 1    
    10    5   80 1    
    11    5   86 1    
    12    6    7 1    
    13    6   87 1    
    14    6   88 1    
    15    7    8 1    
    16    8    9 1    
    17    8   89 1    
    18    8   90 1    
    19    9   10 ar   
    20    9   14 ar   
    21   10   11 ar   
    22   10   91 1    
    23   11   12 ar   
    24   11   58 1    
    25   12   13 ar   
    26   12   92 1    
    27   13   14 ar   
    28   13   15 1    
    29   14   93 1    
    30   15   16 1    
    31   15   94 1    
    32   15   95 1    
    33   16   17 1    
    34   17   18 1    
    35   17   96 1    
    36   17   97 1    
    37   18   19 1    
    38   18   22 1    
    39   18   98 1    
    40   19   20 am   BACKBONE|DICT|INTERRES
    41   19   21 2    
    42   20   99 1    
    43   20  100 1    
    44   22   23 am   BACKBONE|DICT|INTERRES
    45   22  101 1    
    46   23   24 2    
    47   23   25 1    
    48   25   26 1    
    49   25   27 1    
    50   25  102 1    
    51   26  103 1    
    52   26  104 1    
    53   26  105 1    
    54   27   28 am   BACKBONE|DICT|INTERRES
    55   27  106 1    
    56   28   29 2    
    57   28   30 1    
    58   30   31 1    
    59   30   32 1    
    60   30  107 1    
    61   31  108 1    
    62   31  109 1    
    63   31  110 1    
    64   32   33 am   BACKBONE|DICT|INTERRES
    65   32  111 1    
    66   33   34 2    
    67   33   35 1    
    68   35   36 1    
    69   35   37 1    
    70   35  112 1    
    71   36  113 1    
    72   36  114 1    
    73   36  115 1    
    74   37   38 am   BACKBONE|DICT|INTERRES
    75   37  116 1    
    76   38   39 2    
    77   38   40 1    
    78   40   41 1    
    79   40   42 1    
    80   40  117 1    
    81   41  118 1    
    82   41  119 1    
    83   41  120 1    
    84   42   43 am   BACKBONE|DICT|INTERRES
    85   42  121 1    
    86   43   44 2    
    87   43   45 1    
    88   45   46 1    
    89   45   47 1    
    90   45  122 1    
    91   46  123 1    
    92   46  124 1    
    93   46  125 1    
    94   47   48 am   BACKBONE|DICT|INTERRES
    95   47  126 1    
    96   48   49 2    
    97   48   50 1    
    98   50   51 1    
    99   50   52 1    
   100   50  127 1    
   101   51  128 1    
   102   51  129 1    
   103   51  130 1    
   104   52   53 am   BACKBONE|DICT|INTERRES
   105   52  131 1    
   106   53   54 2    
   107   53   55 1    
   108   55   56 1    
   109   55   59 1    
   110   55  132 1    
   111   56   57 1    
   112   56  133 1    
   113   56  134 1    
   114   57   58 1    
   115   58  135 1    
   116   58  136 1    
   117   59   60 am   BACKBONE|DICT|INTERRES
   118   59  137 1    
   119   60   61 2    
   120   60   62 1    
   121   62   63 1    
   122   62   64 1    
   123   62  138 1    
   124   63  139 1    
   125   63  140 1    
   126   63  141 1    
   127   64   65 am   BACKBONE|DICT|INTERRES
   128   64  142 1    
   129   65   66 2    
   130   65   67 1    
   131   67   68 1    
   132   67   69 1    
   133   67  143 1    
   134   68  144 1    
   135   68  145 1    
   136   68  146 1    
   137   69   70 am   BACKBONE|DICT|INTERRES
   138   69  147 1    
   139   70   71 2    
   140   70   72 1    
   141   72   73 1    
   142   72   74 1    
   143   72  148 1    
   144   73  149 1    
   145   73  150 1    
   146   73  151 1    
   147   74   75 am   BACKBONE|DICT|INTERRES
   148   74  152 1    
   149   75   76 2    
   150   75   77 1    
   151   77   78 1    
   152   77   79 1    
   153   77  153 1    
   154   78  154 1    
   155   78  155 1    
   156   78  156 1    
   157   79   80 am   BACKBONE|DICT|INTERRES
   158   79  157 1    
   159   80   81 2    
@<TRIPOS>SUBSTRUCTURE
     1 UNK         1 GROUP             0       ****    0 ROOT    
