@<TRIPOS>MOLECULE
3R207
157   159    1
SMALL
USER_CHARGES


@<TRIPOS>ATOM
      1 CA        -46.4503  -31.4975    2.9277 C.3       0 UNK        -0.1975 
      2 C         -47.2467  -30.2078    2.7969 C.2       0 UNK         0.4852 
      3 O         -46.7766  -29.2589    2.1685 O.2       0 UNK        -0.5216 
      4 N         -48.4480  -30.1639    3.3889 N.am      1 UNK        -0.4461 
      5 CA        -49.3534  -29.0067    3.3778 C.3       1 UNK         0.0864 
      6 C6        -50.8176  -29.4198    3.6732 C.3       14 UNK        -0.0898 
      7 S7        -51.0421  -30.3512    5.2295 S.3       14 UNK        -0.2598 
      8 C8        -51.7362  -29.0573    6.2993 C.3       14 UNK         0.0286 
      9 C9        -52.1445  -29.6170    7.6506 C.ar      14 UNK        -0.0844 
     10 C10       -51.2041  -29.7483    8.6758 C.ar      14 UNK        -0.0881 
     11 C11       -51.5841  -30.2649    9.9177 C.ar      14 UNK        -0.0643 
     12 C12       -52.9163  -30.6286   10.1338 C.ar      14 UNK        -0.0930 
     13 C13       -53.8709  -30.4994    9.1204 C.ar      14 UNK        -0.0827 
     14 C14       -53.4685  -30.0038    7.8733 C.ar      14 UNK        -0.1249 
     15 C15       -55.3036  -30.9487    9.4152 C.3       14 UNK         0.0141 
     16 S16       -56.5884  -30.3879    8.2434 S.3       14 UNK        -0.2313 
     17 C17       -56.5723  -28.5640    8.4109 C.3       14 UNK        -0.0915 
     18 CA        -56.9317  -27.9660    9.8015 C.3       13 UNK         0.0968 
     19 C         -58.1928  -28.6079   10.4568 C.2       13 UNK         0.5732 
     20 N         -58.0941  -29.2252   11.6286 N.am      13 UNK        -0.7310 
     21 O         -59.2828  -28.5297    9.8948 O.2       13 UNK        -0.5035 
     22 N         -55.7421  -27.8405   10.6635 N.am      13 UNK        -0.4233 
     23 C         -55.6644  -27.0147   11.7140 C.2       13 UNK         0.4989 
     24 O         -56.5918  -26.2905   12.0891 O.2       13 UNK        -0.4996 
     25 CA        -54.3272  -26.9635   12.4637 C.3       12 UNK         0.0216 
     26 CB        -53.3110  -26.0825   11.7087 C.3       12 UNK        -0.1964 
     27 N         -54.6032  -26.4201   13.7918 N.am      12 UNK        -0.4276 
     28 C         -53.7808  -26.3967   14.8428 C.2       12 UNK         0.5020 
     29 O         -52.6200  -26.8091   14.8310 O.2       12 UNK        -0.5489 
     30 CA        -54.3604  -25.8338   16.1438 C.3       11 UNK         0.0294 
     31 CB        -54.9984  -26.9503   16.9914 C.3       11 UNK        -0.2019 
     32 N         -53.2754  -25.1954   16.8791 N.am      11 UNK        -0.4493 
     33 C         -53.4117  -24.2666   17.8319 C.2       11 UNK         0.4932 
     34 O         -54.5052  -23.8793   18.2472 O.2       11 UNK        -0.5029 
     35 CA        -52.1238  -23.6265   18.3863 C.3       10 UNK         0.0280 
     36 CB        -52.2266  -23.2677   19.8847 C.3       10 UNK        -0.1976 
     37 N         -50.9030  -24.3858   18.0850 N.am      10 UNK        -0.4242 
     38 C         -50.5032  -25.5570   18.6086 C.2       10 UNK         0.5072 
     39 O         -51.1333  -26.1667   19.4735 O.2       10 UNK        -0.5224 
     40 CA        -49.1935  -26.1793   18.0752 C.3       9 UNK         0.0343 
     41 CB        -49.4496  -27.5953   17.5302 C.3       9 UNK        -0.2003 
     42 N         -48.5489  -25.3805   17.0285 N.am      9 UNK        -0.4272 
     43 C         -47.8073  -24.2818   17.2428 C.2       9 UNK         0.4988 
     44 O         -47.4856  -23.8881   18.3640 O.2       9 UNK        -0.5108 
     45 CA        -47.3904  -23.4490   16.0116 C.3       8 UNK         0.0248 
     46 CB        -45.9322  -23.7468   15.6308 C.3       8 UNK        -0.2001 
     47 N         -48.2552  -23.6508   14.8426 N.am      8 UNK        -0.4140 
     48 C         -49.5689  -23.3764   14.8096 C.2       8 UNK         0.5028 
     49 O         -50.1597  -22.8120   15.7306 O.2       8 UNK        -0.5428 
     50 CA        -50.3887  -23.8599   13.5981 C.3       7 UNK         0.0264 
     51 CB        -50.7581  -22.6754   12.6918 C.3       7 UNK        -0.1988 
     52 N         -49.7668  -24.9122   12.7868 N.am      7 UNK        -0.4454 
     53 C         -49.3434  -26.1085   13.2257 C.2       7 UNK         0.5027 
     54 O         -49.3563  -26.4481   14.4093 O.2       7 UNK        -0.5083 
     55 CA        -48.7190  -27.0470   12.1707 C.3       6 UNK         0.0844 
     56 C56       -49.8005  -27.7568   11.3211 C.3       14 UNK        -0.0967 
     57 S57       -50.6250  -29.1021   12.2346 S.3       14 UNK        -0.2604 
     58 C58       -50.5595  -30.4572   11.0254 C.3       14 UNK         0.0134 
     59 N         -47.7452  -26.3491   11.3265 N.am      6 UNK        -0.4116 
     60 C         -46.6469  -25.7159   11.7656 C.2       5 UNK         0.5034 
     61 O         -46.2831  -25.6966   12.9404 O.2       5 UNK        -0.5045 
     62 CA        -45.8408  -24.9342   10.7191 C.3       5 UNK         0.0224 
     63 CB        -44.8905  -25.8675    9.9529 C.3       5 UNK        -0.1978 
     64 N         -46.7263  -24.2348    9.7847 N.am      5 UNK        -0.4737 
     65 C         -47.3969  -23.1143   10.0912 C.2       4 UNK         0.5027 
     66 O         -47.2592  -22.5047   11.1513 O.2       4 UNK        -0.5211 
     67 CA        -48.4072  -22.5964    9.0522 C.3       4 UNK         0.0297 
     68 CB        -47.7241  -21.6277    8.0741 C.3       4 UNK        -0.1993 
     69 N         -49.0638  -23.6690    8.2994 N.am      4 UNK        -0.4486 
     70 C         -49.9090  -24.5642    8.8305 C.2       3 UNK         0.4961 
     71 O         -50.2477  -24.5697   10.0123 O.2       3 UNK        -0.5105 
     72 CA        -50.4205  -25.6742    7.8978 C.3       3 UNK         0.0299 
     73 CB        -51.6782  -25.2120    7.1460 C.3       3 UNK        -0.1972 
     74 N         -49.4098  -26.1370    6.9407 N.am      3 UNK        -0.4305 
     75 C         -48.2452  -26.7110    7.2701 C.2       2 UNK         0.5006 
     76 O         -47.8914  -26.8982    8.4363 O.2       2 UNK        -0.5106 
     77 CA        -47.3298  -27.1289    6.1023 C.3       2 UNK         0.0296 
     78 CB        -45.9796  -27.6945    6.5791 C.3       2 UNK        -0.2002 
     79 N         -47.9604  -28.1090    5.2146 N.am      2 UNK        -0.4032 
     80 C         -48.8863  -27.8423    4.2816 C.2       1 UNK         0.5000 
     81 O         -49.3745  -26.7212    4.1206 O.2       1 UNK        -0.5238 
     82 H82       -46.9843  -32.2498    3.5080 H         1 UNK         0.0889 
     83 H83       -45.4979  -31.3023    3.4199 H         1 UNK         0.0889 
     84 H84       -46.2455  -31.9131    1.9414 H         1 UNK         0.0889 
     85 H85       -48.7921  -30.9729    3.8886 H         1 UNK         0.3028 
     86 H86       -49.3420  -28.6036    2.3625 H         1 UNK         0.0864 
     87 H87       -51.1737  -30.0595    2.8642 H         1 UNK         0.0720 
     88 H88       -51.4774  -28.5500    3.6567 H         1 UNK         0.0720 
     89 H89       -52.5955  -28.5965    5.8093 H         1 UNK         0.0814 
     90 H90       -50.9978  -28.2696    6.4348 H         1 UNK         0.0814 
     91 H91       -50.1760  -29.4626    8.4996 H         1 UNK         0.1469 
     92 H92       -53.2056  -31.0279   11.0967 H         1 UNK         0.1381 
     93 H93       -54.1778  -29.9179    7.0628 H         1 UNK         0.1206 
     94 H94       -55.3159  -32.0393    9.4203 H         1 UNK         0.0813 
     95 H95       -55.5917  -30.6433   10.4214 H         1 UNK         0.0813 
     96 H96       -57.2928  -28.1925    7.6804 H         1 UNK         0.0638 
     97 H97       -55.6101  -28.1801    8.0703 H         1 UNK         0.0638 
     98 H98       -57.2381  -26.9375    9.5988 H         1 UNK         0.0568 
     99 H99       -58.9196  -29.6289   12.0419 H         1 UNK         0.3450 
    100 H100      -57.2110  -29.2818   12.1074 H         1 UNK         0.3450 
    101 H101      -54.9412  -28.3976   10.4046 H         1 UNK         0.2987 
    102 H102      -53.9346  -27.9772   12.5697 H         1 UNK         0.0766 
    103 H103      -53.1038  -26.4813   10.7148 H         1 UNK         0.0798 
    104 H104      -52.3596  -26.0326   12.2361 H         1 UNK         0.0798 
    105 H105      -53.6742  -25.0617   11.5840 H         1 UNK         0.0798 
    106 H106      -55.5523  -26.0732   13.8819 H         1 UNK         0.3198 
    107 H107      -55.1139  -25.0818   15.8988 H         1 UNK         0.0843 
    108 H108      -55.4370  -26.5555   17.9079 H         1 UNK         0.0831 
    109 H109      -54.2655  -27.7083   17.2711 H         1 UNK         0.0831 
    110 H110      -55.7958  -27.4524   16.4422 H         1 UNK         0.0831 
    111 H111      -52.3514  -25.4623   16.5614 H         1 UNK         0.3133 
    112 H112      -52.0138  -22.6868   17.8434 H         1 UNK         0.0566 
    113 H113      -51.3027  -22.8201   20.2508 H         1 UNK         0.0814 
    114 H114      -52.4454  -24.1410   20.4994 H         1 UNK         0.0814 
    115 H115      -53.0252  -22.5456   20.0586 H         1 UNK         0.0814 
    116 H116      -50.3350  -23.9710   17.3519 H         1 UNK         0.3091 
    117 H117      -48.5080  -26.2618   18.9211 H         1 UNK         0.0702 
    118 H118      -48.5341  -28.0468   17.1476 H         1 UNK         0.0785 
    119 H119      -50.1830  -27.5887   16.7222 H         1 UNK         0.0785 
    120 H120      -49.8329  -28.2535   18.3109 H         1 UNK         0.0785 
    121 H121      -48.7631  -25.6514   16.0708 H         1 UNK         0.2998 
    122 H122      -47.4618  -22.3959   16.2908 H         1 UNK         0.0697 
    123 H123      -45.7858  -24.8012   15.3939 H         1 UNK         0.0825 
    124 H124      -45.2583  -23.5037   16.4534 H         1 UNK         0.0825 
    125 H125      -45.6157  -23.1606   14.7678 H         1 UNK         0.0825 
    126 H126      -47.8467  -24.1366   14.0549 H         1 UNK         0.3029 
    127 H127      -51.3132  -24.2808   13.9989 H         1 UNK         0.0897 
    128 H128      -49.8774  -22.2492   12.2103 H         1 UNK         0.0792 
    129 H129      -51.2387  -21.8786   13.2613 H         1 UNK         0.0792 
    130 H130      -51.4555  -22.9771   11.9100 H         1 UNK         0.0792 
    131 H131      -49.7500  -24.7413   11.7825 H         1 UNK         0.3086 
    132 H132      -48.1532  -27.8106   12.7089 H         1 UNK         0.0583 
    133 H133      -50.5543  -27.0582   10.9569 H         1 UNK         0.1020 
    134 H134      -49.3380  -28.1778   10.4279 H         1 UNK         0.1020 
    135 H135      -49.5517  -30.5462   10.6166 H         1 UNK         0.0694 
    136 H136      -50.7583  -31.3967   11.5432 H         1 UNK         0.0694 
    137 H137      -47.9252  -26.3546   10.3274 H         1 UNK         0.2989 
    138 H138      -45.2359  -24.1925   11.2466 H         1 UNK         0.1055 
    139 H139      -44.1541  -26.3052   10.6281 H         1 UNK         0.0806 
    140 H140      -45.4238  -26.6933    9.4825 H         1 UNK         0.0806 
    141 H141      -44.3414  -25.3320    9.1783 H         1 UNK         0.0806 
    142 H142      -46.9231  -24.6946    8.9073 H         1 UNK         0.3061 
    143 H143      -49.1808  -22.0468    9.5932 H         1 UNK         0.0734 
    144 H144      -46.9506  -22.1229    7.4857 H         1 UNK         0.0832 
    145 H145      -48.4432  -21.1869    7.3834 H         1 UNK         0.0832 
    146 H146      -47.2479  -20.8054    8.6104 H         1 UNK         0.0832 
    147 H147      -48.8458  -23.7415    7.3162 H         1 UNK         0.3156 
    148 H148      -50.6956  -26.5271    8.5215 H         1 UNK         0.0589 
    149 H149      -52.1067  -26.0167    6.5492 H         1 UNK         0.0808 
    150 H150      -52.4498  -24.8848    7.8445 H         1 UNK         0.0808 
    151 H151      -51.4666  -24.3761    6.4781 H         1 UNK         0.0808 
    152 H152      -49.6206  -26.0460    5.9503 H         1 UNK         0.3098 
    153 H153      -47.1198  -26.2275    5.5226 H         1 UNK         0.0720 
    154 H154      -46.1077  -28.5681    7.2198 H         1 UNK         0.0791 
    155 H155      -45.4248  -26.9474    7.1462 H         1 UNK         0.0791 
    156 H156      -45.3505  -27.9847    5.7372 H         1 UNK         0.0791 
    157 H157      -47.6462  -29.0642    5.3025 H         1 UNK         0.3028 
@<TRIPOS>BOND
     1    1    2 1    
     2    1   82 1    
     3    1   83 1    
     4    1   84 1    
     5    2    3 2    
     6    2    4 am   BACKBONE|DICT|INTERRES
     7    4    5 1    
     8    4   85 1    
     9    5    6 1    
    10    5   80 1    
    11    5   86 1    
    12    6    7 1    
    13    6   87 1    
    14    6   88 1    
    15    7    8 1    
    16    8    9 1    
    17    8   89 1    
    18    8   90 1    
    19    9   10 ar   
    20    9   14 ar   
    21   10   11 ar   
    22   10   91 1    
    23   11   12 ar   
    24   11   58 1    
    25   12   13 ar   
    26   12   92 1    
    27   13   14 ar   
    28   13   15 1    
    29   14   93 1    
    30   15   16 1    
    31   15   94 1    
    32   15   95 1    
    33   16   17 1    
    34   17   18 1    
    35   17   96 1    
    36   17   97 1    
    37   18   19 1    
    38   18   22 1    
    39   18   98 1    
    40   19   20 am   BACKBONE|DICT|INTERRES
    41   19   21 2    
    42   20   99 1    
    43   20  100 1    
    44   22   23 am   BACKBONE|DICT|INTERRES
    45   22  101 1    
    46   23   24 2    
    47   23   25 1    
    48   25   26 1    
    49   25   27 1    
    50   25  102 1    
    51   26  103 1    
    52   26  104 1    
    53   26  105 1    
    54   27   28 am   BACKBONE|DICT|INTERRES
    55   27  106 1    
    56   28   29 2    
    57   28   30 1    
    58   30   31 1    
    59   30   32 1    
    60   30  107 1    
    61   31  108 1    
    62   31  109 1    
    63   31  110 1    
    64   32   33 am   BACKBONE|DICT|INTERRES
    65   32  111 1    
    66   33   34 2    
    67   33   35 1    
    68   35   36 1    
    69   35   37 1    
    70   35  112 1    
    71   36  113 1    
    72   36  114 1    
    73   36  115 1    
    74   37   38 am   BACKBONE|DICT|INTERRES
    75   37  116 1    
    76   38   39 2    
    77   38   40 1    
    78   40   41 1    
    79   40   42 1    
    80   40  117 1    
    81   41  118 1    
    82   41  119 1    
    83   41  120 1    
    84   42   43 am   BACKBONE|DICT|INTERRES
    85   42  121 1    
    86   43   44 2    
    87   43   45 1    
    88   45   46 1    
    89   45   47 1    
    90   45  122 1    
    91   46  123 1    
    92   46  124 1    
    93   46  125 1    
    94   47   48 am   BACKBONE|DICT|INTERRES
    95   47  126 1    
    96   48   49 2    
    97   48   50 1    
    98   50   51 1    
    99   50   52 1    
   100   50  127 1    
   101   51  128 1    
   102   51  129 1    
   103   51  130 1    
   104   52   53 am   BACKBONE|DICT|INTERRES
   105   52  131 1    
   106   53   54 2    
   107   53   55 1    
   108   55   56 1    
   109   55   59 1    
   110   55  132 1    
   111   56   57 1    
   112   56  133 1    
   113   56  134 1    
   114   57   58 1    
   115   58  135 1    
   116   58  136 1    
   117   59   60 am   BACKBONE|DICT|INTERRES
   118   59  137 1    
   119   60   61 2    
   120   60   62 1    
   121   62   63 1    
   122   62   64 1    
   123   62  138 1    
   124   63  139 1    
   125   63  140 1    
   126   63  141 1    
   127   64   65 am   BACKBONE|DICT|INTERRES
   128   64  142 1    
   129   65   66 2    
   130   65   67 1    
   131   67   68 1    
   132   67   69 1    
   133   67  143 1    
   134   68  144 1    
   135   68  145 1    
   136   68  146 1    
   137   69   70 am   BACKBONE|DICT|INTERRES
   138   69  147 1    
   139   70   71 2    
   140   70   72 1    
   141   72   73 1    
   142   72   74 1    
   143   72  148 1    
   144   73  149 1    
   145   73  150 1    
   146   73  151 1    
   147   74   75 am   BACKBONE|DICT|INTERRES
   148   74  152 1    
   149   75   76 2    
   150   75   77 1    
   151   77   78 1    
   152   77   79 1    
   153   77  153 1    
   154   78  154 1    
   155   78  155 1    
   156   78  156 1    
   157   79   80 am   BACKBONE|DICT|INTERRES
   158   79  157 1    
   159   80   81 2    
@<TRIPOS>SUBSTRUCTURE
     1 UNK         1 GROUP             0       ****    0 ROOT    
