@<TRIPOS>MOLECULE
3R207
157   159    1
SMALL
USER_CHARGES


@<TRIPOS>ATOM
      1 CA        -46.4913  -29.0175    1.8349 C.3       0 UNK        -0.1975 
      2 C         -47.6176  -28.0334    2.1130 C.2       0 UNK         0.4852 
      3 O         -47.5172  -26.8653    1.7367 O.2       0 UNK        -0.5216 
      4 N         -48.6878  -28.4939    2.7749 N.am      1 UNK        -0.4461 
      5 CA        -49.8685  -27.6957    3.1328 C.3       1 UNK         0.0864 
      6 C6        -51.1223  -28.5860    3.3352 C.3       14 UNK        -0.0898 
      7 S7        -50.9178  -29.9114    4.5763 S.3       14 UNK        -0.2598 
      8 C8        -51.7837  -29.1628    5.9926 C.3       14 UNK         0.0286 
      9 C9        -51.7048  -29.9983    7.2640 C.ar      14 UNK        -0.0844 
     10 C10       -50.4879  -30.5315    7.7031 C.ar      14 UNK        -0.0881 
     11 C11       -50.4220  -31.2794    8.8825 C.ar      14 UNK        -0.0643 
     12 C12       -51.5826  -31.4768    9.6370 C.ar      14 UNK        -0.0930 
     13 C13       -52.7963  -30.9163    9.2307 C.ar      14 UNK        -0.0827 
     14 C14       -52.8534  -30.1913    8.0368 C.ar      14 UNK        -0.1249 
     15 C15       -54.0442  -31.0791   10.0879 C.3       14 UNK         0.0141 
     16 S16       -53.9540  -30.1294   11.6447 S.3       14 UNK        -0.2313 
     17 C17       -53.7569  -28.4074   11.0604 C.3       14 UNK        -0.0915 
     18 CA        -55.0667  -27.5763   11.0386 C.3       13 UNK         0.0968 
     19 C         -56.0120  -27.9907    9.8737 C.2       13 UNK         0.5732 
     20 N         -57.2205  -28.4743   10.1358 N.am      13 UNK        -0.7310 
     21 O         -55.6446  -27.8592    8.7092 O.2       13 UNK        -0.5035 
     22 N         -55.6947  -27.5133   12.3671 N.am      13 UNK        -0.4233 
     23 C         -56.5257  -26.5455   12.7734 C.2       13 UNK         0.4989 
     24 O         -56.8557  -25.5873   12.0727 O.2       13 UNK        -0.4996 
     25 CA        -57.0912  -26.6408   14.2045 C.3       12 UNK         0.0216 
     26 CB        -56.9486  -28.0369   14.8566 C.3       12 UNK        -0.1964 
     27 N         -56.5325  -25.5908   15.0668 N.am      12 UNK        -0.4276 
     28 C         -55.2394  -25.4167   15.3743 C.2       12 UNK         0.5020 
     29 O         -54.3383  -26.1822   15.0261 O.2       12 UNK        -0.5489 
     30 CA        -54.8966  -24.2041   16.2531 C.3       11 UNK         0.0294 
     31 CB        -54.9676  -24.5832   17.7415 C.3       11 UNK        -0.2019 
     32 N         -53.5429  -23.7414   15.9494 N.am      11 UNK        -0.4493 
     33 C         -53.2292  -22.8594   14.9920 C.2       11 UNK         0.4932 
     34 O         -54.0707  -22.2474   14.3324 O.2       11 UNK        -0.5029 
     35 CA        -51.7286  -22.6472   14.6953 C.3       10 UNK         0.0280 
     36 CB        -51.4058  -21.2123   14.2284 C.3       10 UNK        -0.1976 
     37 N         -50.8288  -23.0692   15.7784 N.am      10 UNK        -0.4242 
     38 C         -50.7216  -22.5502   17.0128 C.2       10 UNK         0.5072 
     39 O         -51.3812  -21.5917   17.4155 O.2       10 UNK        -0.5224 
     40 CA        -49.7358  -23.2351   17.9814 C.3       9 UNK         0.0343 
     41 CB        -50.5014  -23.9370   19.1161 C.3       9 UNK        -0.2003 
     42 N         -48.8732  -24.2195   17.3230 N.am      9 UNK        -0.4272 
     43 C         -47.7774  -23.9418   16.6068 C.2       9 UNK         0.4988 
     44 O         -47.3014  -22.8119   16.4981 O.2       9 UNK        -0.5108 
     45 CA        -47.1268  -25.1132   15.8494 C.3       8 UNK         0.0248 
     46 CB        -46.2465  -25.9737   16.7761 C.3       8 UNK        -0.2001 
     47 N         -48.0861  -25.9267   15.0868 N.am      8 UNK        -0.4140 
     48 C         -49.0523  -26.7439   15.5321 C.2       8 UNK         0.5028 
     49 O         -49.2843  -26.9463   16.7247 O.2       8 UNK        -0.5428 
     50 CA        -49.9542  -27.4031   14.4749 C.3       7 UNK         0.0264 
     51 CB        -51.1814  -26.5197   14.2124 C.3       7 UNK        -0.1988 
     52 N         -49.2775  -27.6735   13.2046 N.am      7 UNK        -0.4454 
     53 C         -48.3039  -28.5819   13.0424 C.2       7 UNK         0.5027 
     54 O         -47.8974  -29.3160   13.9450 O.2       7 UNK        -0.5083 
     55 CA        -47.6457  -28.6533   11.6468 C.3       6 UNK         0.0844 
     56 C56       -48.5188  -29.4223   10.6262 C.3       14 UNK        -0.0967 
     57 S57       -48.5672  -31.2157   10.9577 S.3       14 UNK        -0.2604 
     58 C58       -49.0950  -31.8685    9.3417 C.3       14 UNK         0.0134 
     59 N         -47.2921  -27.3211   11.1531 N.am      6 UNK        -0.4116 
     60 C         -46.4045  -26.4959   11.7274 C.2       5 UNK         0.5034 
     61 O         -45.7133  -26.7907   12.7021 O.2       5 UNK        -0.5045 
     62 CA        -46.2921  -25.0854   11.1306 C.3       5 UNK         0.0224 
     63 CB        -45.3360  -25.0824    9.9283 C.3       5 UNK        -0.1978 
     64 N         -47.5978  -24.5512   10.7338 N.am      5 UNK        -0.4737 
     65 C         -48.5430  -24.1621   11.6013 C.2       4 UNK         0.5027 
     66 O         -48.4000  -24.1799   12.8224 O.2       4 UNK        -0.5211 
     67 CA        -49.8882  -23.7123   11.0114 C.3       4 UNK         0.0297 
     68 CB        -49.8466  -22.2236   10.6348 C.3       4 UNK        -0.1993 
     69 N         -50.3025  -24.5088    9.8548 N.am      4 UNK        -0.4486 
     70 C         -50.6210  -25.8095    9.9121 C.2       3 UNK         0.4961 
     71 O         -50.5841  -26.4835   10.9413 O.2       3 UNK        -0.5105 
     72 CA        -51.0116  -26.4753    8.5847 C.3       3 UNK         0.0299 
     73 CB        -52.4513  -26.0948    8.1998 C.3       3 UNK        -0.1972 
     74 N         -50.1100  -26.1553    7.4722 N.am      3 UNK        -0.4305 
     75 C         -48.7847  -26.3502    7.4486 C.2       2 UNK         0.5006 
     76 O         -48.1390  -26.7867    8.4038 O.2       2 UNK        -0.5106 
     77 CA        -48.0743  -25.9982    6.1273 C.3       2 UNK         0.0296 
     78 CB        -46.5403  -26.0657    6.2375 C.3       2 UNK        -0.2002 
     79 N         -48.5027  -26.8656    5.0273 N.am      2 UNK        -0.4032 
     80 C         -49.6337  -26.7294    4.3194 C.2       1 UNK         0.5000 
     81 O         -50.4849  -25.8749    4.5776 O.2       1 UNK        -0.5238 
     82 H82       -46.3264  -29.1046    0.7613 H         1 UNK         0.0889 
     83 H83       -46.7116  -30.0110    2.2254 H         1 UNK         0.0889 
     84 H84       -45.5666  -28.6696    2.2946 H         1 UNK         0.0889 
     85 H85       -48.7242  -29.4638    3.0589 H         1 UNK         0.3028 
     86 H86       -50.0860  -27.0474    2.2808 H         1 UNK         0.0864 
     87 H87       -51.9957  -27.9777    3.5784 H         1 UNK         0.0720 
     88 H88       -51.3692  -29.0690    2.3885 H         1 UNK         0.0720 
     89 H89       -52.8241  -28.9889    5.7129 H         1 UNK         0.0814 
     90 H90       -51.3495  -28.1872    6.1955 H         1 UNK         0.0814 
     91 H91       -49.5909  -30.3651    7.1226 H         1 UNK         0.1469 
     92 H92       -51.5338  -32.0410   10.5584 H         1 UNK         0.1381 
     93 H93       -53.7920  -29.7551    7.7220 H         1 UNK         0.1206 
     94 H94       -54.9361  -30.7803    9.5355 H         1 UNK         0.0813 
     95 H95       -54.1775  -32.1347   10.3283 H         1 UNK         0.0813 
     96 H96       -53.0426  -27.9246   11.7275 H         1 UNK         0.0638 
     97 H97       -53.2735  -28.3931   10.0844 H         1 UNK         0.0638 
     98 H98       -54.7675  -26.5548   10.7967 H         1 UNK         0.0568 
     99 H99       -57.8242  -28.7312    9.3712 H         1 UNK         0.3450 
    100 H100      -57.5311  -28.5901   11.0863 H         1 UNK         0.3450 
    101 H101      -55.4538  -28.2563   13.0062 H         1 UNK         0.2987 
    102 H102      -58.1590  -26.4327   14.1193 H         1 UNK         0.0766 
    103 H103      -57.4494  -28.0657   15.8244 H         1 UNK         0.0798 
    104 H104      -55.9086  -28.3206   15.0207 H         1 UNK         0.0798 
    105 H105      -57.4087  -28.8089   14.2383 H         1 UNK         0.0798 
    106 H106      -57.1953  -24.8987   15.3889 H         1 UNK         0.3198 
    107 H107      -55.6123  -23.4022   16.0581 H         1 UNK         0.0843 
    108 H108      -54.2863  -25.4000   17.9843 H         1 UNK         0.0831 
    109 H109      -55.9728  -24.9062   18.0156 H         1 UNK         0.0831 
    110 H110      -54.7153  -23.7355   18.3790 H         1 UNK         0.0831 
    111 H111      -52.7916  -24.2443   16.3958 H         1 UNK         0.3133 
    112 H112      -51.5072  -23.3094   13.8599 H         1 UNK         0.0566 
    113 H113      -50.3449  -21.0980   14.0056 H         1 UNK         0.0814 
    114 H114      -51.9540  -20.9630   13.3191 H         1 UNK         0.0814 
    115 H115      -51.6734  -20.4711   14.9818 H         1 UNK         0.0814 
    116 H116      -50.2173  -23.8413   15.5572 H         1 UNK         0.3091 
    117 H117      -49.1105  -22.4542   18.4191 H         1 UNK         0.0702 
    118 H118      -51.1379  -23.2333   19.6546 H         1 UNK         0.0785 
    119 H119      -51.1426  -24.7347   18.7386 H         1 UNK         0.0785 
    120 H120      -49.8171  -24.3736   19.8439 H         1 UNK         0.0785 
    121 H121      -49.1675  -25.1943   17.3535 H         1 UNK         0.2998 
    122 H122      -46.4702  -24.6714   15.0979 H         1 UNK         0.0697 
    123 H123      -46.8221  -26.4406   17.5756 H         1 UNK         0.0825 
    124 H124      -45.4723  -25.3672   17.2475 H         1 UNK         0.0825 
    125 H125      -45.7448  -26.7646   16.2182 H         1 UNK         0.0825 
    126 H126      -48.0711  -25.7404   14.0891 H         1 UNK         0.3029 
    127 H127      -50.2973  -28.3547   14.8867 H         1 UNK         0.0897 
    128 H128      -51.9205  -27.0401   13.6043 H         1 UNK         0.0792 
    129 H129      -50.9124  -25.6006   13.6929 H         1 UNK         0.0792 
    130 H130      -51.6736  -26.2430   15.1454 H         1 UNK         0.0792 
    131 H131      -49.6050  -27.1521   12.3929 H         1 UNK         0.3086 
    132 H132      -46.7046  -29.1964   11.7583 H         1 UNK         0.0583 
    133 H133      -49.5382  -29.0311   10.5972 H         1 UNK         0.1020 
    134 H134      -48.1171  -29.2815    9.6212 H         1 UNK         0.1020 
    135 H135      -48.3083  -31.6785    8.6098 H         1 UNK         0.0694 
    136 H136      -49.1928  -32.9525    9.4135 H         1 UNK         0.0694 
    137 H137      -47.7691  -27.0079   10.3124 H         1 UNK         0.2989 
    138 H138      -45.8767  -24.4297   11.8997 H         1 UNK         0.1055 
    139 H139      -44.3291  -25.3682   10.2354 H         1 UNK         0.0806 
    140 H140      -45.2674  -24.0950    9.4715 H         1 UNK         0.0806 
    141 H141      -45.6512  -25.7913    9.1631 H         1 UNK         0.0806 
    142 H142      -47.8148  -24.5494    9.7478 H         1 UNK         0.3061 
    143 H143      -50.6453  -23.8444   11.7855 H         1 UNK         0.0734 
    144 H144      -50.8241  -21.8693   10.3070 H         1 UNK         0.0832 
    145 H145      -49.5548  -21.6143   11.4914 H         1 UNK         0.0832 
    146 H146      -49.1304  -22.0261    9.8362 H         1 UNK         0.0832 
    147 H147      -50.3543  -24.0386    8.9628 H         1 UNK         0.3156 
    148 H148      -50.9713  -27.5550    8.7421 H         1 UNK         0.0589 
    149 H149      -52.5298  -25.0478    7.9052 H         1 UNK         0.0808 
    150 H150      -52.8221  -26.7018    7.3746 H         1 UNK         0.0808 
    151 H151      -53.1351  -26.2439    9.0345 H         1 UNK         0.0808 
    152 H152      -50.5378  -25.8217    6.6138 H         1 UNK         0.3098 
    153 H153      -48.3385  -24.9675    5.8808 H         1 UNK         0.0720 
    154 H154      -46.0632  -25.8323    5.2853 H         1 UNK         0.0791 
    155 H155      -46.1960  -27.0518    6.5523 H         1 UNK         0.0791 
    156 H156      -46.1733  -25.3390    6.9617 H         1 UNK         0.0791 
    157 H157      -47.8780  -27.6171    4.7752 H         1 UNK         0.3028 
@<TRIPOS>BOND
     1    1    2 1    
     2    1   82 1    
     3    1   83 1    
     4    1   84 1    
     5    2    3 2    
     6    2    4 am   BACKBONE|DICT|INTERRES
     7    4    5 1    
     8    4   85 1    
     9    5    6 1    
    10    5   80 1    
    11    5   86 1    
    12    6    7 1    
    13    6   87 1    
    14    6   88 1    
    15    7    8 1    
    16    8    9 1    
    17    8   89 1    
    18    8   90 1    
    19    9   10 ar   
    20    9   14 ar   
    21   10   11 ar   
    22   10   91 1    
    23   11   12 ar   
    24   11   58 1    
    25   12   13 ar   
    26   12   92 1    
    27   13   14 ar   
    28   13   15 1    
    29   14   93 1    
    30   15   16 1    
    31   15   94 1    
    32   15   95 1    
    33   16   17 1    
    34   17   18 1    
    35   17   96 1    
    36   17   97 1    
    37   18   19 1    
    38   18   22 1    
    39   18   98 1    
    40   19   20 am   BACKBONE|DICT|INTERRES
    41   19   21 2    
    42   20   99 1    
    43   20  100 1    
    44   22   23 am   BACKBONE|DICT|INTERRES
    45   22  101 1    
    46   23   24 2    
    47   23   25 1    
    48   25   26 1    
    49   25   27 1    
    50   25  102 1    
    51   26  103 1    
    52   26  104 1    
    53   26  105 1    
    54   27   28 am   BACKBONE|DICT|INTERRES
    55   27  106 1    
    56   28   29 2    
    57   28   30 1    
    58   30   31 1    
    59   30   32 1    
    60   30  107 1    
    61   31  108 1    
    62   31  109 1    
    63   31  110 1    
    64   32   33 am   BACKBONE|DICT|INTERRES
    65   32  111 1    
    66   33   34 2    
    67   33   35 1    
    68   35   36 1    
    69   35   37 1    
    70   35  112 1    
    71   36  113 1    
    72   36  114 1    
    73   36  115 1    
    74   37   38 am   BACKBONE|DICT|INTERRES
    75   37  116 1    
    76   38   39 2    
    77   38   40 1    
    78   40   41 1    
    79   40   42 1    
    80   40  117 1    
    81   41  118 1    
    82   41  119 1    
    83   41  120 1    
    84   42   43 am   BACKBONE|DICT|INTERRES
    85   42  121 1    
    86   43   44 2    
    87   43   45 1    
    88   45   46 1    
    89   45   47 1    
    90   45  122 1    
    91   46  123 1    
    92   46  124 1    
    93   46  125 1    
    94   47   48 am   BACKBONE|DICT|INTERRES
    95   47  126 1    
    96   48   49 2    
    97   48   50 1    
    98   50   51 1    
    99   50   52 1    
   100   50  127 1    
   101   51  128 1    
   102   51  129 1    
   103   51  130 1    
   104   52   53 am   BACKBONE|DICT|INTERRES
   105   52  131 1    
   106   53   54 2    
   107   53   55 1    
   108   55   56 1    
   109   55   59 1    
   110   55  132 1    
   111   56   57 1    
   112   56  133 1    
   113   56  134 1    
   114   57   58 1    
   115   58  135 1    
   116   58  136 1    
   117   59   60 am   BACKBONE|DICT|INTERRES
   118   59  137 1    
   119   60   61 2    
   120   60   62 1    
   121   62   63 1    
   122   62   64 1    
   123   62  138 1    
   124   63  139 1    
   125   63  140 1    
   126   63  141 1    
   127   64   65 am   BACKBONE|DICT|INTERRES
   128   64  142 1    
   129   65   66 2    
   130   65   67 1    
   131   67   68 1    
   132   67   69 1    
   133   67  143 1    
   134   68  144 1    
   135   68  145 1    
   136   68  146 1    
   137   69   70 am   BACKBONE|DICT|INTERRES
   138   69  147 1    
   139   70   71 2    
   140   70   72 1    
   141   72   73 1    
   142   72   74 1    
   143   72  148 1    
   144   73  149 1    
   145   73  150 1    
   146   73  151 1    
   147   74   75 am   BACKBONE|DICT|INTERRES
   148   74  152 1    
   149   75   76 2    
   150   75   77 1    
   151   77   78 1    
   152   77   79 1    
   153   77  153 1    
   154   78  154 1    
   155   78  155 1    
   156   78  156 1    
   157   79   80 am   BACKBONE|DICT|INTERRES
   158   79  157 1    
   159   80   81 2    
@<TRIPOS>SUBSTRUCTURE
     1 UNK         1 GROUP             0       ****    0 ROOT    
