@<TRIPOS>MOLECULE
3R207
157   159    1
SMALL
USER_CHARGES


@<TRIPOS>ATOM
      1 CA        -49.6938  -27.3685    9.4700 C.3       0 UNK        -0.1975 
      2 C         -48.7954  -27.8721    8.3565 C.2       0 UNK         0.4852 
      3 O         -47.5737  -27.8943    8.5147 O.2       0 UNK        -0.5216 
      4 N         -49.4062  -28.2783    7.2372 N.am      1 UNK        -0.4461 
      5 CA        -48.7629  -28.8585    6.0537 C.3       1 UNK         0.0864 
      6 C6        -49.8003  -29.2012    4.9594 C.3       14 UNK        -0.0898 
      7 S7        -51.0547  -30.3918    5.5381 S.3       14 UNK        -0.2598 
      8 C8        -52.5911  -29.4303    5.3697 C.3       14 UNK         0.0286 
      9 C9        -52.8300  -28.4901    6.5443 C.ar      14 UNK        -0.0844 
     10 C10       -52.5951  -27.1159    6.4231 C.ar      14 UNK        -0.0881 
     11 C11       -52.9259  -26.2424    7.4668 C.ar      14 UNK        -0.0643 
     12 C12       -53.4744  -26.7582    8.6453 C.ar      14 UNK        -0.0930 
     13 C13       -53.6995  -28.1308    8.7820 C.ar      14 UNK        -0.0827 
     14 C14       -53.3686  -28.9915    7.7323 C.ar      14 UNK        -0.1249 
     15 C15       -54.3445  -28.6813   10.0431 C.3       14 UNK         0.0141 
     16 S16       -56.1569  -28.7118    9.8756 S.3       14 UNK        -0.2313 
     17 C17       -56.6356  -29.4712   11.4615 C.3       14 UNK        -0.0915 
     18 CA        -56.7086  -28.4356   12.6213 C.3       13 UNK         0.0968 
     19 C         -58.0694  -27.6805   12.7380 C.2       13 UNK         0.5732 
     20 N         -58.4498  -27.2015   13.9174 N.am      13 UNK        -0.7310 
     21 O         -58.7816  -27.5002   11.7531 O.2       13 UNK        -0.5035 
     22 N         -56.2016  -28.9934   13.8820 N.am      13 UNK        -0.4233 
     23 C         -56.7837  -29.9425   14.6302 C.2       13 UNK         0.4989 
     24 O         -57.8302  -30.5117   14.3180 O.2       13 UNK        -0.4996 
     25 CA        -56.0919  -30.3375   15.9530 C.3       12 UNK         0.0216 
     26 CB        -55.5207  -31.7624   15.8567 C.3       12 UNK        -0.1964 
     27 N         -55.0192  -29.4247   16.3604 N.am      12 UNK        -0.4276 
     28 C         -55.1871  -28.1569   16.7619 C.2       12 UNK         0.5020 
     29 O         -56.2894  -27.6392   16.9456 O.2       12 UNK        -0.5489 
     30 CA        -53.9129  -27.3073   16.9323 C.3       11 UNK         0.0294 
     31 CB        -53.4938  -27.2519   18.4098 C.3       11 UNK        -0.2019 
     32 N         -52.7706  -27.7557   16.1238 N.am      11 UNK        -0.4493 
     33 C         -52.7336  -27.8436   14.7867 C.2       11 UNK         0.4932 
     34 O         -53.7045  -27.6075   14.0687 O.2       11 UNK        -0.5029 
     35 CA        -51.4037  -28.3088   14.1604 C.3       10 UNK         0.0280 
     36 CB        -51.4362  -28.3040   12.6222 C.3       10 UNK        -0.1976 
     37 N         -50.2554  -27.5197   14.6168 N.am      10 UNK        -0.4242 
     38 C         -49.6438  -27.6765   15.7997 C.2       10 UNK         0.5072 
     39 O         -50.0341  -28.4644   16.6633 O.2       10 UNK        -0.5224 
     40 CA        -48.4125  -26.8132   16.0863 C.3       9 UNK         0.0343 
     41 CB        -47.1664  -27.4009   15.4028 C.3       9 UNK        -0.2003 
     42 N         -48.6121  -25.4226   15.6702 N.am      9 UNK        -0.4272 
     43 C         -48.2679  -24.3631   16.4154 C.2       9 UNK         0.4988 
     44 O         -47.7461  -24.4453   17.5284 O.2       9 UNK        -0.5108 
     45 CA        -48.5254  -22.9662   15.8283 C.3       8 UNK         0.0248 
     46 CB        -47.2977  -22.4811   15.0397 C.3       8 UNK        -0.2001 
     47 N         -49.7141  -22.8893   14.9769 N.am      8 UNK        -0.4140 
     48 C         -50.9771  -22.8776   15.4297 C.2       8 UNK         0.5028 
     49 O         -51.2759  -22.9997   16.6179 O.2       8 UNK        -0.5428 
     50 CA        -52.0988  -22.6676   14.3976 C.3       7 UNK         0.0264 
     51 CB        -52.5676  -21.2025   14.4113 C.3       7 UNK        -0.1988 
     52 N         -51.6713  -23.0201   13.0397 N.am      7 UNK        -0.4454 
     53 C         -52.1476  -24.0591   12.3415 C.2       7 UNK         0.5027 
     54 O         -53.0869  -24.7625   12.7086 O.2       7 UNK        -0.5083 
     55 CA        -51.4441  -24.3844   11.0100 C.3       6 UNK         0.0844 
     56 C56       -52.1064  -23.6298    9.8310 C.3       14 UNK        -0.0967 
     57 S57       -51.3601  -24.0532    8.2136 S.3       14 UNK        -0.2604 
     58 C58       -52.7680  -24.7377    7.2844 C.3       14 UNK         0.0134 
     59 N         -49.9945  -24.1642   11.0457 N.am      6 UNK        -0.4116 
     60 C         -49.0989  -24.7520   11.8497 C.2       5 UNK         0.5034 
     61 O         -49.3961  -25.4426   12.8285 O.2       5 UNK        -0.5045 
     62 CA        -47.6177  -24.5460   11.4713 C.3       5 UNK         0.0224 
     63 CB        -46.6807  -25.5251   12.1995 C.3       5 UNK        -0.1978 
     64 N         -47.3878  -24.6694   10.0271 N.am      5 UNK        -0.4737 
     65 C         -47.5972  -23.7057    9.1196 C.2       4 UNK         0.5027 
     66 O         -48.0730  -22.6083    9.4132 O.2       4 UNK        -0.5211 
     67 CA        -47.2679  -24.0341    7.6499 C.3       4 UNK         0.0297 
     68 CB        -46.8784  -22.7832    6.8357 C.3       4 UNK        -0.1993 
     69 N         -46.2670  -25.0961    7.4912 N.am      4 UNK        -0.4486 
     70 C         -44.9920  -25.0945    7.9158 C.2       3 UNK         0.4961 
     71 O         -44.4606  -24.1487    8.4978 O.2       3 UNK        -0.5105 
     72 CA        -44.1662  -26.3722    7.6742 C.3       3 UNK         0.0299 
     73 CB        -44.0381  -27.1799    8.9767 C.3       3 UNK        -0.1972 
     74 N         -44.7308  -27.2300    6.6299 N.am      3 UNK        -0.4305 
     75 C         -44.6476  -26.9775    5.3151 C.2       2 UNK         0.5006 
     76 O         -44.0024  -26.0430    4.8386 O.2       2 UNK        -0.5106 
     77 CA        -45.4245  -27.9092    4.3652 C.3       2 UNK         0.0296 
     78 CB        -44.4850  -28.9693    3.7669 C.3       2 UNK        -0.2002 
     79 N         -46.5775  -28.5776    4.9805 N.am      2 UNK        -0.4032 
     80 C         -47.6612  -27.9537    5.4653 C.2       1 UNK         0.5000 
     81 O         -47.8103  -26.7291    5.4538 O.2       1 UNK        -0.5238 
     82 H82       -49.8859  -26.3098    9.3212 H         1 UNK         0.0889 
     83 H83       -49.2159  -27.5037   10.4396 H         1 UNK         0.0889 
     84 H84       -50.6489  -27.8937    9.4826 H         1 UNK         0.0889 
     85 H85       -50.4141  -28.2194    7.1816 H         1 UNK         0.3028 
     86 H86       -48.2917  -29.7864    6.3846 H         1 UNK         0.0864 
     87 H87       -50.2863  -28.2935    4.5965 H         1 UNK         0.0720 
     88 H88       -49.3095  -29.6473    4.0920 H         1 UNK         0.0720 
     89 H89       -53.4263  -30.1291    5.3011 H         1 UNK         0.0814 
     90 H90       -52.5880  -28.8836    4.4254 H         1 UNK         0.0814 
     91 H91       -52.1965  -26.7199    5.4989 H         1 UNK         0.1469 
     92 H92       -53.7567  -26.0906    9.4468 H         1 UNK         0.1381 
     93 H93       -53.5661  -30.0510    7.8253 H         1 UNK         0.1206 
     94 H94       -54.0691  -28.0695   10.9037 H         1 UNK         0.0813 
     95 H95       -53.9752  -29.6882   10.2442 H         1 UNK         0.0813 
     96 H96       -55.9059  -30.2517   11.6834 H         1 UNK         0.0638 
     97 H97       -57.5874  -29.9910   11.3384 H         1 UNK         0.0638 
     98 H98       -55.9950  -27.6418   12.3993 H         1 UNK         0.0568 
     99 H99       -57.8725  -27.3321   14.7346 H         1 UNK         0.3450 
    100 H100      -59.3250  -26.7076   13.9899 H         1 UNK         0.3450 
    101 H101      -55.3344  -28.5715   14.2017 H         1 UNK         0.2987 
    102 H102      -56.8574  -30.3259   16.7317 H         1 UNK         0.0766 
    103 H103      -56.3004  -32.4800   15.5969 H         1 UNK         0.0798 
    104 H104      -55.0926  -32.0847   16.8062 H         1 UNK         0.0798 
    105 H105      -54.7443  -31.8359   15.0940 H         1 UNK         0.0798 
    106 H106      -54.0725  -29.7565   16.2447 H         1 UNK         0.3198 
    107 H107      -54.1594  -26.2940   16.6077 H         1 UNK         0.0843 
    108 H108      -53.1987  -28.2334   18.7830 H         1 UNK         0.0831 
    109 H109      -54.3142  -26.8975   19.0357 H         1 UNK         0.0831 
    110 H110      -52.6568  -26.5693   18.5596 H         1 UNK         0.0831 
    111 H111      -51.9165  -27.9971   16.6202 H         1 UNK         0.3133 
    112 H112      -51.2553  -29.3444   14.4736 H         1 UNK         0.0566 
    113 H113      -50.4950  -28.6609   12.2053 H         1 UNK         0.0814 
    114 H114      -51.6250  -27.3057   12.2294 H         1 UNK         0.0814 
    115 H115      -52.2222  -28.9599   12.2475 H         1 UNK         0.0814 
    116 H116      -49.9023  -26.8285   13.9595 H         1 UNK         0.3091 
    117 H117      -48.2526  -26.8565   17.1659 H         1 UNK         0.0702 
    118 H118      -46.2817  -26.7947   15.5981 H         1 UNK         0.0785 
    119 H119      -47.2943  -27.4759   14.3230 H         1 UNK         0.0785 
    120 H120      -46.9594  -28.4056   15.7735 H         1 UNK         0.0785 
    121 H121      -49.0319  -25.2703   14.7593 H         1 UNK         0.2998 
    122 H122      -48.6713  -22.2833   16.6684 H         1 UNK         0.0697 
    123 H123      -47.0856  -23.1191   14.1828 H         1 UNK         0.0825 
    124 H124      -46.4071  -22.4813   15.6700 H         1 UNK         0.0825 
    125 H125      -47.4335  -21.4619   14.6775 H         1 UNK         0.0825 
    126 H126      -49.5545  -22.7949   13.9880 H         1 UNK         0.3029 
    127 H127      -52.9370  -23.2940   14.7116 H         1 UNK         0.0897 
    128 H128      -51.7691  -20.5172   14.1240 H         1 UNK         0.0792 
    129 H129      -52.9066  -20.9100   15.4063 H         1 UNK         0.0792 
    130 H130      -53.4033  -21.0492   13.7282 H         1 UNK         0.0792 
    131 H131      -50.9440  -22.4586   12.6216 H         1 UNK         0.3086 
    132 H132      -51.5909  -25.4512   10.8367 H         1 UNK         0.0583 
    133 H133      -53.1790  -23.8286    9.8059 H         1 UNK         0.1020 
    134 H134      -52.0106  -22.5509    9.9681 H         1 UNK         0.1020 
    135 H135      -53.6910  -24.2291    7.5657 H         1 UNK         0.0694 
    136 H136      -52.6160  -24.5060    6.2291 H         1 UNK         0.0694 
    137 H137      -49.6221  -23.5917   10.2950 H         1 UNK         0.2989 
    138 H138      -47.3478  -23.5336   11.7791 H         1 UNK         0.1055 
    139 H139      -45.6408  -25.3668   11.9124 H         1 UNK         0.0806 
    140 H140      -46.9337  -26.5636   11.9813 H         1 UNK         0.0806 
    141 H141      -46.7358  -25.3898   13.2794 H         1 UNK         0.0806 
    142 H142      -47.0392  -25.5591    9.6961 H         1 UNK         0.3061 
    143 H143      -48.1901  -24.4299    7.2213 H         1 UNK         0.0734 
    144 H144      -45.9986  -22.2887    7.2484 H         1 UNK         0.0832 
    145 H145      -46.6660  -23.0372    5.7972 H         1 UNK         0.0832 
    146 H146      -47.6883  -22.0526    6.8297 H         1 UNK         0.0832 
    147 H147      -46.6061  -25.9230    7.0105 H         1 UNK         0.3156 
    148 H148      -43.1646  -26.0635    7.3672 H         1 UNK         0.0589 
    149 H149      -45.0078  -27.5234    9.3389 H         1 UNK         0.0808 
    150 H150      -43.5919  -26.5759    9.7682 H         1 UNK         0.0808 
    151 H151      -43.4011  -28.0541    8.8410 H         1 UNK         0.0808 
    152 H152      -45.2890  -28.0133    6.9401 H         1 UNK         0.3098 
    153 H153      -45.8028  -27.2902    3.5488 H         1 UNK         0.0720 
    154 H154      -43.6311  -28.5012    3.2746 H         1 UNK         0.0791 
    155 H155      -44.9944  -29.5752    3.0173 H         1 UNK         0.0791 
    156 H156      -44.0917  -29.6396    4.5324 H         1 UNK         0.0791 
    157 H157      -46.5379  -29.5864    5.0228 H         1 UNK         0.3028 
@<TRIPOS>BOND
     1    1    2 1    
     2    1   82 1    
     3    1   83 1    
     4    1   84 1    
     5    2    3 2    
     6    2    4 am   BACKBONE|DICT|INTERRES
     7    4    5 1    
     8    4   85 1    
     9    5    6 1    
    10    5   80 1    
    11    5   86 1    
    12    6    7 1    
    13    6   87 1    
    14    6   88 1    
    15    7    8 1    
    16    8    9 1    
    17    8   89 1    
    18    8   90 1    
    19    9   10 ar   
    20    9   14 ar   
    21   10   11 ar   
    22   10   91 1    
    23   11   12 ar   
    24   11   58 1    
    25   12   13 ar   
    26   12   92 1    
    27   13   14 ar   
    28   13   15 1    
    29   14   93 1    
    30   15   16 1    
    31   15   94 1    
    32   15   95 1    
    33   16   17 1    
    34   17   18 1    
    35   17   96 1    
    36   17   97 1    
    37   18   19 1    
    38   18   22 1    
    39   18   98 1    
    40   19   20 am   BACKBONE|DICT|INTERRES
    41   19   21 2    
    42   20   99 1    
    43   20  100 1    
    44   22   23 am   BACKBONE|DICT|INTERRES
    45   22  101 1    
    46   23   24 2    
    47   23   25 1    
    48   25   26 1    
    49   25   27 1    
    50   25  102 1    
    51   26  103 1    
    52   26  104 1    
    53   26  105 1    
    54   27   28 am   BACKBONE|DICT|INTERRES
    55   27  106 1    
    56   28   29 2    
    57   28   30 1    
    58   30   31 1    
    59   30   32 1    
    60   30  107 1    
    61   31  108 1    
    62   31  109 1    
    63   31  110 1    
    64   32   33 am   BACKBONE|DICT|INTERRES
    65   32  111 1    
    66   33   34 2    
    67   33   35 1    
    68   35   36 1    
    69   35   37 1    
    70   35  112 1    
    71   36  113 1    
    72   36  114 1    
    73   36  115 1    
    74   37   38 am   BACKBONE|DICT|INTERRES
    75   37  116 1    
    76   38   39 2    
    77   38   40 1    
    78   40   41 1    
    79   40   42 1    
    80   40  117 1    
    81   41  118 1    
    82   41  119 1    
    83   41  120 1    
    84   42   43 am   BACKBONE|DICT|INTERRES
    85   42  121 1    
    86   43   44 2    
    87   43   45 1    
    88   45   46 1    
    89   45   47 1    
    90   45  122 1    
    91   46  123 1    
    92   46  124 1    
    93   46  125 1    
    94   47   48 am   BACKBONE|DICT|INTERRES
    95   47  126 1    
    96   48   49 2    
    97   48   50 1    
    98   50   51 1    
    99   50   52 1    
   100   50  127 1    
   101   51  128 1    
   102   51  129 1    
   103   51  130 1    
   104   52   53 am   BACKBONE|DICT|INTERRES
   105   52  131 1    
   106   53   54 2    
   107   53   55 1    
   108   55   56 1    
   109   55   59 1    
   110   55  132 1    
   111   56   57 1    
   112   56  133 1    
   113   56  134 1    
   114   57   58 1    
   115   58  135 1    
   116   58  136 1    
   117   59   60 am   BACKBONE|DICT|INTERRES
   118   59  137 1    
   119   60   61 2    
   120   60   62 1    
   121   62   63 1    
   122   62   64 1    
   123   62  138 1    
   124   63  139 1    
   125   63  140 1    
   126   63  141 1    
   127   64   65 am   BACKBONE|DICT|INTERRES
   128   64  142 1    
   129   65   66 2    
   130   65   67 1    
   131   67   68 1    
   132   67   69 1    
   133   67  143 1    
   134   68  144 1    
   135   68  145 1    
   136   68  146 1    
   137   69   70 am   BACKBONE|DICT|INTERRES
   138   69  147 1    
   139   70   71 2    
   140   70   72 1    
   141   72   73 1    
   142   72   74 1    
   143   72  148 1    
   144   73  149 1    
   145   73  150 1    
   146   73  151 1    
   147   74   75 am   BACKBONE|DICT|INTERRES
   148   74  152 1    
   149   75   76 2    
   150   75   77 1    
   151   77   78 1    
   152   77   79 1    
   153   77  153 1    
   154   78  154 1    
   155   78  155 1    
   156   78  156 1    
   157   79   80 am   BACKBONE|DICT|INTERRES
   158   79  157 1    
   159   80   81 2    
@<TRIPOS>SUBSTRUCTURE
     1 UNK         1 GROUP             0       ****    0 ROOT    
