@<TRIPOS>MOLECULE
3R207
157   159    1
SMALL
USER_CHARGES


@<TRIPOS>ATOM
      1 CA        -52.5715  -26.9156    1.8553 C.3       0 UNK        -0.1975 
      2 C         -51.6201  -27.3475    2.9619 C.2       0 UNK         0.4852 
      3 O         -50.6474  -28.0514    2.6852 O.2       0 UNK        -0.5216 
      4 N         -51.9010  -26.9303    4.2049 N.am      1 UNK        -0.4461 
      5 CA        -51.1157  -27.2026    5.4189 C.3       1 UNK         0.0864 
      6 C6        -51.0822  -28.7102    5.8149 C.3       14 UNK        -0.0898 
      7 S7        -52.7622  -29.4011    6.0201 S.3       14 UNK        -0.2598 
      8 C8        -52.6911  -30.1410    7.6912 C.3       14 UNK         0.0286 
      9 C9        -52.4045  -29.1716    8.8399 C.ar      14 UNK        -0.0844 
     10 C10       -52.6746  -27.8002    8.7546 C.ar      14 UNK        -0.0881 
     11 C11       -52.3708  -26.9419    9.8148 C.ar      14 UNK        -0.0643 
     12 C12       -51.8470  -27.4723   10.9978 C.ar      14 UNK        -0.0930 
     13 C13       -51.5980  -28.8427   11.1103 C.ar      14 UNK        -0.0827 
     14 C14       -51.8659  -29.6812   10.0250 C.ar      14 UNK        -0.1249 
     15 C15       -51.0150  -29.4146   12.3952 C.3       14 UNK         0.0141 
     16 S16       -52.2830  -29.6886   13.6704 S.3       14 UNK        -0.2313 
     17 C17       -53.2398  -31.0784   12.9782 C.3       14 UNK        -0.0915 
     18 CA        -54.5307  -31.4181   13.7707 C.3       13 UNK         0.0968 
     19 C         -54.2413  -31.9653   15.1991 C.2       13 UNK         0.5732 
     20 N         -54.7348  -31.3425   16.2633 N.am      13 UNK        -0.7310 
     21 O         -53.5751  -32.9882   15.3422 O.2       13 UNK        -0.5035 
     22 N         -55.5159  -30.3239   13.7167 N.am      13 UNK        -0.4233 
     23 C         -56.8457  -30.5085   13.7347 C.2       13 UNK         0.4989 
     24 O         -57.3762  -31.6180   13.8067 O.2       13 UNK        -0.4996 
     25 CA        -57.7577  -29.2660   13.6575 C.3       12 UNK         0.0216 
     26 CB        -58.3501  -28.9478   15.0405 C.3       12 UNK        -0.1964 
     27 N         -57.0840  -28.0727   13.1456 N.am      12 UNK        -0.4276 
     28 C         -56.6288  -27.9102   11.8976 C.2       12 UNK         0.5020 
     29 O         -56.8815  -28.6941   10.9817 O.2       12 UNK        -0.5489 
     30 CA        -55.7268  -26.6885   11.6129 C.3       11 UNK         0.0294 
     31 CB        -56.3571  -25.7934   10.5316 C.3       11 UNK        -0.2019 
     32 N         -55.3562  -25.8440   12.7617 N.am      11 UNK        -0.4493 
     33 C         -54.7159  -26.2274   13.8752 C.2       11 UNK         0.4932 
     34 O         -54.4886  -27.4012   14.1683 O.2       11 UNK        -0.5029 
     35 CA        -54.3465  -25.1101   14.8652 C.3       10 UNK         0.0280 
     36 CB        -55.5325  -24.8121   15.7977 C.3       10 UNK        -0.1976 
     37 N         -53.1781  -25.4597   15.6772 N.am      10 UNK        -0.4242 
     38 C         -51.9327  -25.5920   15.2022 C.2       10 UNK         0.5072 
     39 O         -51.6203  -25.3784   14.0317 O.2       10 UNK        -0.5224 
     40 CA        -50.8699  -26.0445   16.2105 C.3       9 UNK         0.0343 
     41 CB        -50.9507  -27.5616   16.4619 C.3       9 UNK        -0.2003 
     42 N         -49.5294  -25.7003   15.7357 N.am      9 UNK        -0.4272 
     43 C         -48.4764  -25.4874   16.5350 C.2       9 UNK         0.4988 
     44 O         -48.5347  -25.5296   17.7653 O.2       9 UNK        -0.5108 
     45 CA        -47.1210  -25.1916   15.8712 C.3       8 UNK         0.0248 
     46 CB        -46.4226  -26.4996   15.4641 C.3       8 UNK        -0.2001 
     47 N         -47.2112  -24.2969   14.7161 N.am      8 UNK        -0.4140 
     48 C         -47.4956  -22.9881   14.7879 C.2       8 UNK         0.5028 
     49 O         -47.7188  -22.3911   15.8421 O.2       8 UNK        -0.5428 
     50 CA        -47.5260  -22.2048   13.4638 C.3       7 UNK         0.0264 
     51 CB        -46.1092  -21.7665   13.0597 C.3       7 UNK        -0.1988 
     52 N         -48.1375  -22.9757   12.3799 N.am      7 UNK        -0.4454 
     53 C         -49.4528  -23.2205   12.2886 C.2       7 UNK         0.5027 
     54 O         -50.2867  -22.6787   13.0154 O.2       7 UNK        -0.5083 
     55 CA        -49.9285  -24.2390   11.2293 C.3       6 UNK         0.0844 
     56 C56       -50.5118  -23.5280    9.9853 C.3       14 UNK        -0.0967 
     57 S57       -51.2396  -24.6621    8.7514 S.3       14 UNK        -0.2604 
     58 C58       -52.6103  -25.4465    9.6639 C.3       14 UNK         0.0134 
     59 N         -48.9114  -25.2412   10.8942 N.am      6 UNK        -0.4116 
     60 C         -48.4757  -26.1856   11.7407 C.2       5 UNK         0.5034 
     61 O         -48.8753  -26.3184   12.8962 O.2       5 UNK        -0.5045 
     62 CA        -47.3525  -27.1002   11.2352 C.3       5 UNK         0.0224 
     63 CB        -47.8943  -28.1810   10.2842 C.3       5 UNK        -0.1978 
     64 N         -46.2910  -26.3315   10.5828 N.am      5 UNK        -0.4737 
     65 C         -45.4518  -25.5129   11.2336 C.2       4 UNK         0.5027 
     66 O         -45.4674  -25.3504   12.4529 O.2       4 UNK        -0.5211 
     67 CA        -44.4509  -24.7153   10.3807 C.3       4 UNK         0.0297 
     68 CB        -43.1873  -25.5480   10.1138 C.3       4 UNK        -0.1993 
     69 N         -45.0197  -24.2634    9.1089 N.am      4 UNK        -0.4486 
     70 C         -46.0130  -23.3697    8.9992 C.2       3 UNK         0.4961 
     71 O         -46.5304  -22.7978    9.9566 O.2       3 UNK        -0.5105 
     72 CA        -46.5580  -23.1102    7.5851 C.3       3 UNK         0.0299 
     73 CB        -45.7144  -22.0453    6.8668 C.3       3 UNK        -0.1972 
     74 N         -46.6442  -24.3180    6.7557 N.am      3 UNK        -0.4305 
     75 C         -47.3603  -25.4055    7.0716 C.2       2 UNK         0.5006 
     76 O         -47.9712  -25.5415    8.1333 O.2       2 UNK        -0.5106 
     77 CA        -47.3547  -26.5587    6.0577 C.3       2 UNK         0.0296 
     78 CB        -46.3648  -27.6511    6.4943 C.3       2 UNK        -0.2002 
     79 N         -48.6919  -27.1393    5.9299 N.am      2 UNK        -0.4032 
     80 C         -49.7280  -26.5208    5.3451 C.2       1 UNK         0.5000 
     81 O         -49.6241  -25.4293    4.7755 O.2       1 UNK        -0.5238 
     82 H82       -52.9983  -27.7904    1.3656 H         1 UNK         0.0889 
     83 H83       -52.0357  -26.3327    1.1066 H         1 UNK         0.0889 
     84 H84       -53.3916  -26.3069    2.2358 H         1 UNK         0.0889 
     85 H85       -52.7034  -26.3333    4.3462 H         1 UNK         0.3028 
     86 H86       -51.6284  -26.6695    6.2196 H         1 UNK         0.0864 
     87 H87       -50.5401  -28.8522    6.7508 H         1 UNK         0.0720 
     88 H88       -50.5564  -29.3012    5.0634 H         1 UNK         0.0720 
     89 H89       -51.9367  -30.9293    7.6784 H         1 UNK         0.0814 
     90 H90       -53.6445  -30.6322    7.8894 H         1 UNK         0.0814 
     91 H91       -53.1095  -27.3861    7.8572 H         1 UNK         0.1469 
     92 H92       -51.6303  -26.8261   11.8364 H         1 UNK         0.1381 
     93 H93       -51.6626  -30.7402   10.1085 H         1 UNK         0.1206 
     94 H94       -50.2707  -28.7237   12.7938 H         1 UNK         0.0813 
     95 H95       -50.4887  -30.3498   12.1992 H         1 UNK         0.0813 
     96 H96       -52.5873  -31.9510   12.9163 H         1 UNK         0.0638 
     97 H97       -53.5123  -30.8352   11.9511 H         1 UNK         0.0638 
     98 H98       -54.9728  -32.2661   13.2442 H         1 UNK         0.0568 
     99 H99       -54.5476  -31.7106   17.1823 H         1 UNK         0.3450 
    100 H100      -55.2725  -30.4986   16.1541 H         1 UNK         0.3450 
    101 H101      -55.1361  -29.3829   13.7097 H         1 UNK         0.2987 
    102 H102      -58.5780  -29.5068   12.9781 H         1 UNK         0.0766 
    103 H103      -59.0612  -28.1231   14.9877 H         1 UNK         0.0798 
    104 H104      -57.5758  -28.6790   15.7603 H         1 UNK         0.0798 
    105 H105      -58.8857  -29.8085   15.4440 H         1 UNK         0.0798 
    106 H106      -56.7794  -27.3970   13.8316 H         1 UNK         0.3198 
    107 H107      -54.7972  -27.0978   11.2152 H         1 UNK         0.0843 
    108 H108      -57.3028  -25.3656   10.8666 H         1 UNK         0.0831 
    109 H109      -55.6968  -24.9722   10.2538 H         1 UNK         0.0831 
    110 H110      -56.5606  -26.3607    9.6221 H         1 UNK         0.0831 
    111 H111      -55.5449  -24.8577   12.6513 H         1 UNK         0.3133 
    112 H112      -54.1066  -24.2071   14.2996 H         1 UNK         0.0566 
    113 H113      -55.3019  -23.9987   16.4861 H         1 UNK         0.0814 
    114 H114      -56.4142  -24.5110   15.2303 H         1 UNK         0.0814 
    115 H115      -55.8096  -25.6852   16.3904 H         1 UNK         0.0814 
    116 H116      -53.3554  -25.6965   16.6422 H         1 UNK         0.3091 
    117 H117      -51.0653  -25.5148   17.1455 H         1 UNK         0.0702 
    118 H118      -50.6496  -28.1235   15.5776 H         1 UNK         0.0785 
    119 H119      -51.9642  -27.8735   16.7179 H         1 UNK         0.0785 
    120 H120      -50.3012  -27.8629   17.2837 H         1 UNK         0.0785 
    121 H121      -49.4231  -25.6630   14.7234 H         1 UNK         0.2998 
    122 H122      -46.4930  -24.7009   16.6179 H         1 UNK         0.0697 
    123 H123      -46.9802  -27.0338   14.6945 H         1 UNK         0.0825 
    124 H124      -46.3214  -27.1705   16.3182 H         1 UNK         0.0825 
    125 H125      -45.4200  -26.3108   15.0802 H         1 UNK         0.0825 
    126 H126      -46.9943  -24.7018   13.8123 H         1 UNK         0.3029 
    127 H127      -48.1223  -21.3038   13.6249 H         1 UNK         0.0897 
    128 H128      -46.1277  -21.1445   12.1645 H         1 UNK         0.0792 
    129 H129      -45.6414  -21.1801   13.8516 H         1 UNK         0.0792 
    130 H130      -45.4617  -22.6205   12.8598 H         1 UNK         0.0792 
    131 H131      -47.5157  -23.3465   11.6689 H         1 UNK         0.3086 
    132 H132      -50.7466  -24.7767   11.7026 H         1 UNK         0.0583 
    133 H133      -51.2831  -22.8132   10.2795 H         1 UNK         0.1020 
    134 H134      -49.7334  -22.9463    9.4875 H         1 UNK         0.1020 
    135 H135      -52.7592  -24.9767   10.6368 H         1 UNK         0.0694 
    136 H136      -53.5336  -25.2810    9.1076 H         1 UNK         0.0694 
    137 H137      -48.5576  -25.2348    9.9404 H         1 UNK         0.2989 
    138 H138      -46.9186  -27.6029   12.1027 H         1 UNK         0.1055 
    139 H139      -48.4139  -27.7541    9.4263 H         1 UNK         0.0806 
    140 H140      -48.6071  -28.8246   10.7993 H         1 UNK         0.0806 
    141 H141      -47.0949  -28.8214    9.9121 H         1 UNK         0.0806 
    142 H142      -46.2739  -26.3433    9.5730 H         1 UNK         0.3061 
    143 H143      -44.1619  -23.8304   10.9520 H         1 UNK         0.0734 
    144 H144      -42.4340  -24.9677    9.5806 H         1 UNK         0.0832 
    145 H145      -42.7354  -25.8787   11.0501 H         1 UNK         0.0832 
    146 H146      -43.4051  -26.4401    9.5251 H         1 UNK         0.0832 
    147 H147      -44.6559  -24.6818    8.2653 H         1 UNK         0.3156 
    148 H148      -47.5726  -22.7214    7.6953 H         1 UNK         0.0589 
    149 H149      -44.6942  -22.3873    6.6883 H         1 UNK         0.0808 
    150 H150      -46.1515  -21.7737    5.9057 H         1 UNK         0.0808 
    151 H151      -45.6524  -21.1321    7.4607 H         1 UNK         0.0808 
    152 H152      -46.1641  -24.2928    5.8672 H         1 UNK         0.3098 
    153 H153      -47.0480  -26.1788    5.0807 H         1 UNK         0.0720 
    154 H154      -46.3284  -28.4649    5.7696 H         1 UNK         0.0791 
    155 H155      -46.6310  -28.0770    7.4622 H         1 UNK         0.0791 
    156 H156      -45.3534  -27.2518    6.5806 H         1 UNK         0.0791 
    157 H157      -48.8526  -28.0116    6.4098 H         1 UNK         0.3028 
@<TRIPOS>BOND
     1    1    2 1    
     2    1   82 1    
     3    1   83 1    
     4    1   84 1    
     5    2    3 2    
     6    2    4 am   BACKBONE|DICT|INTERRES
     7    4    5 1    
     8    4   85 1    
     9    5    6 1    
    10    5   80 1    
    11    5   86 1    
    12    6    7 1    
    13    6   87 1    
    14    6   88 1    
    15    7    8 1    
    16    8    9 1    
    17    8   89 1    
    18    8   90 1    
    19    9   10 ar   
    20    9   14 ar   
    21   10   11 ar   
    22   10   91 1    
    23   11   12 ar   
    24   11   58 1    
    25   12   13 ar   
    26   12   92 1    
    27   13   14 ar   
    28   13   15 1    
    29   14   93 1    
    30   15   16 1    
    31   15   94 1    
    32   15   95 1    
    33   16   17 1    
    34   17   18 1    
    35   17   96 1    
    36   17   97 1    
    37   18   19 1    
    38   18   22 1    
    39   18   98 1    
    40   19   20 am   BACKBONE|DICT|INTERRES
    41   19   21 2    
    42   20   99 1    
    43   20  100 1    
    44   22   23 am   BACKBONE|DICT|INTERRES
    45   22  101 1    
    46   23   24 2    
    47   23   25 1    
    48   25   26 1    
    49   25   27 1    
    50   25  102 1    
    51   26  103 1    
    52   26  104 1    
    53   26  105 1    
    54   27   28 am   BACKBONE|DICT|INTERRES
    55   27  106 1    
    56   28   29 2    
    57   28   30 1    
    58   30   31 1    
    59   30   32 1    
    60   30  107 1    
    61   31  108 1    
    62   31  109 1    
    63   31  110 1    
    64   32   33 am   BACKBONE|DICT|INTERRES
    65   32  111 1    
    66   33   34 2    
    67   33   35 1    
    68   35   36 1    
    69   35   37 1    
    70   35  112 1    
    71   36  113 1    
    72   36  114 1    
    73   36  115 1    
    74   37   38 am   BACKBONE|DICT|INTERRES
    75   37  116 1    
    76   38   39 2    
    77   38   40 1    
    78   40   41 1    
    79   40   42 1    
    80   40  117 1    
    81   41  118 1    
    82   41  119 1    
    83   41  120 1    
    84   42   43 am   BACKBONE|DICT|INTERRES
    85   42  121 1    
    86   43   44 2    
    87   43   45 1    
    88   45   46 1    
    89   45   47 1    
    90   45  122 1    
    91   46  123 1    
    92   46  124 1    
    93   46  125 1    
    94   47   48 am   BACKBONE|DICT|INTERRES
    95   47  126 1    
    96   48   49 2    
    97   48   50 1    
    98   50   51 1    
    99   50   52 1    
   100   50  127 1    
   101   51  128 1    
   102   51  129 1    
   103   51  130 1    
   104   52   53 am   BACKBONE|DICT|INTERRES
   105   52  131 1    
   106   53   54 2    
   107   53   55 1    
   108   55   56 1    
   109   55   59 1    
   110   55  132 1    
   111   56   57 1    
   112   56  133 1    
   113   56  134 1    
   114   57   58 1    
   115   58  135 1    
   116   58  136 1    
   117   59   60 am   BACKBONE|DICT|INTERRES
   118   59  137 1    
   119   60   61 2    
   120   60   62 1    
   121   62   63 1    
   122   62   64 1    
   123   62  138 1    
   124   63  139 1    
   125   63  140 1    
   126   63  141 1    
   127   64   65 am   BACKBONE|DICT|INTERRES
   128   64  142 1    
   129   65   66 2    
   130   65   67 1    
   131   67   68 1    
   132   67   69 1    
   133   67  143 1    
   134   68  144 1    
   135   68  145 1    
   136   68  146 1    
   137   69   70 am   BACKBONE|DICT|INTERRES
   138   69  147 1    
   139   70   71 2    
   140   70   72 1    
   141   72   73 1    
   142   72   74 1    
   143   72  148 1    
   144   73  149 1    
   145   73  150 1    
   146   73  151 1    
   147   74   75 am   BACKBONE|DICT|INTERRES
   148   74  152 1    
   149   75   76 2    
   150   75   77 1    
   151   77   78 1    
   152   77   79 1    
   153   77  153 1    
   154   78  154 1    
   155   78  155 1    
   156   78  156 1    
   157   79   80 am   BACKBONE|DICT|INTERRES
   158   79  157 1    
   159   80   81 2    
@<TRIPOS>SUBSTRUCTURE
     1 UNK         1 GROUP             0       ****    0 ROOT    
