@<TRIPOS>MOLECULE
3R207
157   159    1
SMALL
USER_CHARGES


@<TRIPOS>ATOM
      1 CA        -48.0081  -31.9603    2.9454 C.3       0 UNK        -0.1975 
      2 C         -47.7559  -30.9673    4.0706 C.2       0 UNK         0.4852 
      3 O         -46.6139  -30.8243    4.5094 O.2       0 UNK        -0.5216 
      4 N         -48.8146  -30.2880    4.5345 N.am      1 UNK        -0.4461 
      5 CA        -48.8116  -29.2708    5.5934 C.3       1 UNK         0.0864 
      6 C6        -48.4562  -29.8341    7.0009 C.3       14 UNK        -0.0898 
      7 S7        -49.7012  -31.0225    7.6095 S.3       14 UNK        -0.2598 
      8 C8        -49.9444  -30.4681    9.3368 C.3       14 UNK         0.0286 
      9 C9        -51.0015  -29.3780    9.5277 C.ar      14 UNK        -0.0844 
     10 C10       -51.2034  -28.3619    8.5880 C.ar      14 UNK        -0.0881 
     11 C11       -52.1631  -27.3665    8.7917 C.ar      14 UNK        -0.0643 
     12 C12       -52.9382  -27.3901    9.9560 C.ar      14 UNK        -0.0930 
     13 C13       -52.7493  -28.3966   10.9085 C.ar      14 UNK        -0.0827 
     14 C14       -51.7776  -29.3786   10.6907 C.ar      14 UNK        -0.1249 
     15 C15       -53.5849  -28.4357   12.1795 C.3       14 UNK         0.0141 
     16 S16       -54.9573  -29.6213   12.0379 S.3       14 UNK        -0.2313 
     17 C17       -56.2391  -28.6292   11.1935 C.3       14 UNK        -0.0915 
     18 CA        -57.5808  -28.5511   11.9730 C.3       13 UNK         0.0968 
     19 C         -58.3396  -29.9110   11.9660 C.2       13 UNK         0.5732 
     20 N         -58.9917  -30.2469   10.8607 N.am      13 UNK        -0.7310 
     21 O         -58.3219  -30.6730   12.9319 O.2       13 UNK        -0.5035 
     22 N         -57.3905  -27.9838   13.3158 N.am      13 UNK        -0.4233 
     23 C         -58.3660  -27.6355   14.1624 C.2       13 UNK         0.4989 
     24 O         -59.5630  -27.6547   13.8675 O.2       13 UNK        -0.4996 
     25 CA        -57.9275  -27.1934   15.5754 C.3       12 UNK         0.0216 
     26 CB        -59.1220  -26.9250   16.5113 C.3       12 UNK        -0.1964 
     27 N         -57.0320  -28.1639   16.2171 N.am      12 UNK        -0.4276 
     28 C         -55.7231  -28.2813   15.9662 C.2       12 UNK         0.5020 
     29 O         -55.1325  -27.6013   15.1238 O.2       12 UNK        -0.5489 
     30 CA        -54.9601  -29.3656   16.7396 C.3       11 UNK         0.0294 
     31 CB        -54.9130  -30.6670   15.9233 C.3       11 UNK        -0.2019 
     32 N         -53.5942  -28.9106   16.9852 N.am      11 UNK        -0.4493 
     33 C         -53.1968  -28.1964   18.0433 C.2       11 UNK         0.4932 
     34 O         -53.9046  -27.9796   19.0275 O.2       11 UNK        -0.5029 
     35 CA        -51.7808  -27.5915   17.9857 C.3       10 UNK         0.0280 
     36 CB        -50.6906  -28.6711   18.1362 C.3       10 UNK        -0.1976 
     37 N         -51.5595  -26.7448   16.8043 N.am      10 UNK        -0.4242 
     38 C         -51.5350  -27.0917   15.5101 C.2       10 UNK         0.5072 
     39 O         -51.5798  -28.2561   15.1120 O.2       10 UNK        -0.5224 
     40 CA        -51.4843  -25.9471   14.4850 C.3       9 UNK         0.0343 
     41 CB        -52.6733  -24.9766   14.6388 C.3       9 UNK        -0.2003 
     42 N         -50.2076  -25.2302   14.4592 N.am      9 UNK        -0.4272 
     43 C         -49.6332  -24.4899   15.4183 C.2       9 UNK         0.4988 
     44 O         -50.1126  -24.3062   16.5385 O.2       9 UNK        -0.5108 
     45 CA        -48.3012  -23.8155   15.0460 C.3       8 UNK         0.0248 
     46 CB        -47.1536  -24.8385   15.0239 C.3       8 UNK        -0.2001 
     47 N         -48.3741  -23.1220   13.7566 N.am      8 UNK        -0.4140 
     48 C         -49.1199  -22.0302   13.5267 C.2       8 UNK         0.5028 
     49 O         -49.7460  -21.4290   14.4010 O.2       8 UNK        -0.5428 
     50 CA        -49.1963  -21.5264   12.0755 C.3       7 UNK         0.0264 
     51 CB        -47.9776  -20.6543   11.7340 C.3       7 UNK        -0.1988 
     52 N         -49.3218  -22.6136   11.1013 N.am      7 UNK        -0.4454 
     53 C         -50.3899  -23.4197   10.9954 C.2       7 UNK         0.5027 
     54 O         -51.4142  -23.2841   11.6641 O.2       7 UNK        -0.5083 
     55 CA        -50.3069  -24.5775    9.9791 C.3       6 UNK         0.0844 
     56 C56       -50.7881  -24.0980    8.5882 C.3       14 UNK        -0.0967 
     57 S57       -50.8301  -25.4071    7.3212 S.3       14 UNK        -0.2604 
     58 C58       -52.3732  -26.2899    7.7331 C.3       14 UNK         0.0134 
     59 N         -48.9804  -25.2044    9.9583 N.am      6 UNK        -0.4116 
     60 C         -48.4391  -25.8530   11.0007 C.2       5 UNK         0.5034 
     61 O         -49.0211  -26.0513   12.0654 O.2       5 UNK        -0.5045 
     62 CA        -46.9745  -26.2930   10.8708 C.3       5 UNK         0.0224 
     63 CB        -46.8557  -27.6399   10.1418 C.3       5 UNK        -0.1978 
     64 N         -46.1648  -25.2749   10.2001 N.am      5 UNK        -0.4737 
     65 C         -45.8266  -24.1043   10.7592 C.2       4 UNK         0.5027 
     66 O         -46.1204  -23.7912   11.9129 O.2       4 UNK        -0.5211 
     67 CA        -45.0683  -23.1009    9.8729 C.3       4 UNK         0.0297 
     68 CB        -43.5569  -23.3724    9.9259 C.3       4 UNK        -0.1993 
     69 N         -45.5211  -23.1141    8.4791 N.am      4 UNK        -0.4486 
     70 C         -46.7425  -22.7361    8.0753 C.2       3 UNK         0.4961 
     71 O         -47.6045  -22.2890    8.8301 O.2       3 UNK        -0.5105 
     72 CA        -47.0798  -22.9434    6.5878 C.3       3 UNK         0.0299 
     73 CB        -46.6365  -21.7271    5.7601 C.3       3 UNK        -0.1972 
     74 N         -46.5108  -24.1690    6.0121 N.am      3 UNK        -0.4305 
     75 C         -46.7492  -25.4049    6.4716 C.2       2 UNK         0.5006 
     76 O         -47.4266  -25.6423    7.4737 O.2       2 UNK        -0.5106 
     77 CA        -46.0600  -26.5640    5.7365 C.3       2 UNK         0.0296 
     78 CB        -44.6640  -26.8119    6.3319 C.3       2 UNK        -0.2002 
     79 N         -46.8518  -27.7876    5.8608 N.am      2 UNK        -0.4032 
     80 C         -47.9744  -28.0412    5.1740 C.2       1 UNK         0.5000 
     81 O         -48.3738  -27.3410    4.2401 O.2       1 UNK        -0.5238 
     82 H82       -49.0584  -31.9924    2.6562 H         1 UNK         0.0889 
     83 H83       -47.7119  -32.9617    3.2565 H         1 UNK         0.0889 
     84 H84       -47.4227  -31.6887    2.0674 H         1 UNK         0.0889 
     85 H85       -49.7165  -30.4480    4.1078 H         1 UNK         0.3028 
     86 H86       -49.8370  -28.9021    5.6387 H         1 UNK         0.0864 
     87 H87       -47.4837  -30.3284    6.9999 H         1 UNK         0.0720 
     88 H88       -48.3856  -29.0212    7.7237 H         1 UNK         0.0720 
     89 H89       -48.9964  -30.1281    9.7545 H         1 UNK         0.0814 
     90 H90       -50.2276  -31.3480    9.9165 H         1 UNK         0.0814 
     91 H91       -50.6143  -28.3291    7.6872 H         1 UNK         0.1469 
     92 H92       -53.6884  -26.6291   10.1200 H         1 UNK         0.1381 
     93 H93       -51.6326  -30.1521   11.4329 H         1 UNK         0.1206 
     94 H94       -52.9556  -28.7489   13.0114 H         1 UNK         0.0813 
     95 H95       -53.9589  -27.4451   12.4426 H         1 UNK         0.0813 
     96 H96       -56.3934  -29.0463   10.1969 H         1 UNK         0.0638 
     97 H97       -55.8635  -27.6191   11.0278 H         1 UNK         0.0638 
     98 H98       -58.2193  -27.8437   11.4405 H         1 UNK         0.0568 
     99 H99       -59.4801  -31.1280   10.8308 H         1 UNK         0.3450 
    100 H100      -59.0076  -29.6381   10.0575 H         1 UNK         0.3450 
    101 H101      -56.4366  -27.9565   13.6618 H         1 UNK         0.2987 
    102 H102      -57.3891  -26.2505   15.4552 H         1 UNK         0.0766 
    103 H103      -58.7903  -26.5659   17.4858 H         1 UNK         0.0798 
    104 H104      -59.7214  -27.8225   16.6696 H         1 UNK         0.0798 
    105 H105      -59.7812  -26.1610   16.0966 H         1 UNK         0.0798 
    106 H106      -57.4576  -28.7943   16.8821 H         1 UNK         0.3198 
    107 H107      -55.4643  -29.5590   17.6890 H         1 UNK         0.0843 
    108 H108      -54.4025  -30.5256   14.9696 H         1 UNK         0.0831 
    109 H109      -55.9179  -31.0300   15.7030 H         1 UNK         0.0831 
    110 H110      -54.3935  -31.4566   16.4664 H         1 UNK         0.0831 
    111 H111      -52.9605  -28.9321   16.1889 H         1 UNK         0.3133 
    112 H112      -51.6898  -26.9212   18.8419 H         1 UNK         0.0566 
    113 H113      -49.6952  -28.2273   18.1534 H         1 UNK         0.0814 
    114 H114      -50.8171  -29.2204   19.0700 H         1 UNK         0.0814 
    115 H115      -50.7167  -29.4018   17.3276 H         1 UNK         0.0814 
    116 H116      -51.4289  -25.7557   16.9949 H         1 UNK         0.3091 
    117 H117      -51.5743  -26.4081   13.4998 H         1 UNK         0.0702 
    118 H118      -52.6828  -24.2378   13.8381 H         1 UNK         0.0785 
    119 H119      -52.6525  -24.4369   15.5855 H         1 UNK         0.0785 
    120 H120      -53.6211  -25.5127   14.5910 H         1 UNK         0.0785 
    121 H121      -49.6879  -25.3616   13.5922 H         1 UNK         0.2998 
    122 H122      -48.0768  -23.0728   15.8145 H         1 UNK         0.0697 
    123 H123      -47.3008  -25.5987   14.2561 H         1 UNK         0.0825 
    124 H124      -47.0708  -25.3529   15.9822 H         1 UNK         0.0825 
    125 H125      -46.1962  -24.3539   14.8314 H         1 UNK         0.0825 
    126 H126      -47.8241  -23.5062   12.9944 H         1 UNK         0.3029 
    127 H127      -50.0898  -20.9037   11.9913 H         1 UNK         0.0897 
    128 H128      -48.0576  -20.2363   10.7303 H         1 UNK         0.0792 
    129 H129      -47.8910  -19.8171   12.4279 H         1 UNK         0.0792 
    130 H130      -47.0472  -21.2194   11.7879 H         1 UNK         0.0792 
    131 H131      -48.5596  -22.7217   10.4366 H         1 UNK         0.3086 
    132 H132      -51.0048  -25.3392   10.3289 H         1 UNK         0.0583 
    133 H133      -51.7841  -23.6560    8.6579 H         1 UNK         0.1020 
    134 H134      -50.1365  -23.3043    8.2180 H         1 UNK         0.1020 
    135 H135      -53.1377  -25.5751    8.0407 H         1 UNK         0.0694 
    136 H136      -52.7489  -26.7684    6.8278 H         1 UNK         0.0694 
    137 H137      -48.4543  -25.1435    9.0913 H         1 UNK         0.2989 
    138 H138      -46.5811  -26.4255   11.8814 H         1 UNK         0.1055 
    139 H139      -47.4157  -28.4135   10.6684 H         1 UNK         0.0806 
    140 H140      -45.8189  -27.9714   10.0852 H         1 UNK         0.0806 
    141 H141      -47.2482  -27.5881    9.1284 H         1 UNK         0.0806 
    142 H142      -45.9697  -25.4217    9.2195 H         1 UNK         0.3061 
    143 H143      -45.2494  -22.1018   10.2747 H         1 UNK         0.0734 
    144 H144      -42.9980  -22.6200    9.3691 H         1 UNK         0.0832 
    145 H145      -43.1936  -23.3472   10.9544 H         1 UNK         0.0832 
    146 H146      -43.3052  -24.3515    9.5161 H         1 UNK         0.0832 
    147 H147      -44.8759  -23.4670    7.7877 H         1 UNK         0.3156 
    148 H148      -48.1661  -23.0271    6.5118 H         1 UNK         0.0589 
    149 H149      -45.5522  -21.6090    5.7607 H         1 UNK         0.0808 
    150 H150      -46.9658  -21.8098    4.7241 H         1 UNK         0.0808 
    151 H151      -47.0645  -20.8067    6.1604 H         1 UNK         0.0808 
    152 H152      -45.9282  -24.0578    5.1942 H         1 UNK         0.3098 
    153 H153      -45.9582  -26.3105    4.6791 H         1 UNK         0.0720 
    154 H154      -44.1575  -27.6324    5.8228 H         1 UNK         0.0791 
    155 H155      -44.7131  -27.0570    7.3939 H         1 UNK         0.0791 
    156 H156      -44.0300  -25.9303    6.2291 H         1 UNK         0.0791 
    157 H157      -46.5901  -28.4175    6.6035 H         1 UNK         0.3028 
@<TRIPOS>BOND
     1    1    2 1    
     2    1   82 1    
     3    1   83 1    
     4    1   84 1    
     5    2    3 2    
     6    2    4 am   BACKBONE|DICT|INTERRES
     7    4    5 1    
     8    4   85 1    
     9    5    6 1    
    10    5   80 1    
    11    5   86 1    
    12    6    7 1    
    13    6   87 1    
    14    6   88 1    
    15    7    8 1    
    16    8    9 1    
    17    8   89 1    
    18    8   90 1    
    19    9   10 ar   
    20    9   14 ar   
    21   10   11 ar   
    22   10   91 1    
    23   11   12 ar   
    24   11   58 1    
    25   12   13 ar   
    26   12   92 1    
    27   13   14 ar   
    28   13   15 1    
    29   14   93 1    
    30   15   16 1    
    31   15   94 1    
    32   15   95 1    
    33   16   17 1    
    34   17   18 1    
    35   17   96 1    
    36   17   97 1    
    37   18   19 1    
    38   18   22 1    
    39   18   98 1    
    40   19   20 am   BACKBONE|DICT|INTERRES
    41   19   21 2    
    42   20   99 1    
    43   20  100 1    
    44   22   23 am   BACKBONE|DICT|INTERRES
    45   22  101 1    
    46   23   24 2    
    47   23   25 1    
    48   25   26 1    
    49   25   27 1    
    50   25  102 1    
    51   26  103 1    
    52   26  104 1    
    53   26  105 1    
    54   27   28 am   BACKBONE|DICT|INTERRES
    55   27  106 1    
    56   28   29 2    
    57   28   30 1    
    58   30   31 1    
    59   30   32 1    
    60   30  107 1    
    61   31  108 1    
    62   31  109 1    
    63   31  110 1    
    64   32   33 am   BACKBONE|DICT|INTERRES
    65   32  111 1    
    66   33   34 2    
    67   33   35 1    
    68   35   36 1    
    69   35   37 1    
    70   35  112 1    
    71   36  113 1    
    72   36  114 1    
    73   36  115 1    
    74   37   38 am   BACKBONE|DICT|INTERRES
    75   37  116 1    
    76   38   39 2    
    77   38   40 1    
    78   40   41 1    
    79   40   42 1    
    80   40  117 1    
    81   41  118 1    
    82   41  119 1    
    83   41  120 1    
    84   42   43 am   BACKBONE|DICT|INTERRES
    85   42  121 1    
    86   43   44 2    
    87   43   45 1    
    88   45   46 1    
    89   45   47 1    
    90   45  122 1    
    91   46  123 1    
    92   46  124 1    
    93   46  125 1    
    94   47   48 am   BACKBONE|DICT|INTERRES
    95   47  126 1    
    96   48   49 2    
    97   48   50 1    
    98   50   51 1    
    99   50   52 1    
   100   50  127 1    
   101   51  128 1    
   102   51  129 1    
   103   51  130 1    
   104   52   53 am   BACKBONE|DICT|INTERRES
   105   52  131 1    
   106   53   54 2    
   107   53   55 1    
   108   55   56 1    
   109   55   59 1    
   110   55  132 1    
   111   56   57 1    
   112   56  133 1    
   113   56  134 1    
   114   57   58 1    
   115   58  135 1    
   116   58  136 1    
   117   59   60 am   BACKBONE|DICT|INTERRES
   118   59  137 1    
   119   60   61 2    
   120   60   62 1    
   121   62   63 1    
   122   62   64 1    
   123   62  138 1    
   124   63  139 1    
   125   63  140 1    
   126   63  141 1    
   127   64   65 am   BACKBONE|DICT|INTERRES
   128   64  142 1    
   129   65   66 2    
   130   65   67 1    
   131   67   68 1    
   132   67   69 1    
   133   67  143 1    
   134   68  144 1    
   135   68  145 1    
   136   68  146 1    
   137   69   70 am   BACKBONE|DICT|INTERRES
   138   69  147 1    
   139   70   71 2    
   140   70   72 1    
   141   72   73 1    
   142   72   74 1    
   143   72  148 1    
   144   73  149 1    
   145   73  150 1    
   146   73  151 1    
   147   74   75 am   BACKBONE|DICT|INTERRES
   148   74  152 1    
   149   75   76 2    
   150   75   77 1    
   151   77   78 1    
   152   77   79 1    
   153   77  153 1    
   154   78  154 1    
   155   78  155 1    
   156   78  156 1    
   157   79   80 am   BACKBONE|DICT|INTERRES
   158   79  157 1    
   159   80   81 2    
@<TRIPOS>SUBSTRUCTURE
     1 UNK         1 GROUP             0       ****    0 ROOT    
