@<TRIPOS>MOLECULE
3R207
157   159    1
SMALL
USER_CHARGES


@<TRIPOS>ATOM
      1 CA        -48.4367  -25.7788    4.2003 C.3       0 UNK        -0.1975 
      2 C         -48.6766  -25.9599    5.6908 C.2       0 UNK         0.4852 
      3 O         -49.7051  -25.5180    6.2027 O.2       0 UNK        -0.5216 
      4 N         -47.7296  -26.5843    6.3945 N.am      1 UNK        -0.4461 
      5 CA        -47.7882  -26.8765    7.8248 C.3       1 UNK         0.0864 
      6 C6        -48.8156  -27.9830    8.1867 C.3       14 UNK        -0.0898 
      7 S7        -48.7510  -29.4835    7.1461 S.3       14 UNK        -0.2598 
      8 C8        -49.7184  -30.6605    8.1476 C.3       14 UNK         0.0286 
      9 C9        -51.0321  -30.0708    8.6476 C.ar      14 UNK        -0.0844 
     10 C10       -52.0224  -29.6670    7.7448 C.ar      14 UNK        -0.0881 
     11 C11       -53.2189  -29.1091    8.2061 C.ar      14 UNK        -0.0643 
     12 C12       -53.4277  -28.9781    9.5831 C.ar      14 UNK        -0.0930 
     13 C13       -52.4457  -29.3777   10.4939 C.ar      14 UNK        -0.0827 
     14 C14       -51.2498  -29.9212   10.0207 C.ar      14 UNK        -0.1249 
     15 C15       -52.6863  -29.2274   11.9867 C.3       14 UNK         0.0141 
     16 S16       -53.6761  -30.6205   12.6122 S.3       14 UNK        -0.2313 
     17 C17       -54.1878  -30.0240   14.2578 C.3       14 UNK        -0.0915 
     18 CA        -55.5899  -29.3586   14.2213 C.3       13 UNK         0.0968 
     19 C         -56.1655  -29.1504   15.6532 C.2       13 UNK         0.5732 
     20 N         -56.4321  -27.9299   16.1070 N.am      13 UNK        -0.7310 
     21 O         -56.3876  -30.1252   16.3671 O.2       13 UNK        -0.5035 
     22 N         -55.5647  -28.1386   13.4078 N.am      13 UNK        -0.4233 
     23 C         -56.6199  -27.5663   12.8182 C.2       13 UNK         0.4989 
     24 O         -57.7438  -28.0700   12.7880 O.2       13 UNK        -0.4996 
     25 CA        -56.3696  -26.1938   12.1549 C.3       12 UNK         0.0216 
     26 CB        -57.6205  -25.2904   12.1797 C.3       12 UNK        -0.1964 
     27 N         -55.2022  -25.4777   12.6953 N.am      12 UNK        -0.4276 
     28 C         -55.0016  -25.1114   13.9696 C.2       12 UNK         0.5020 
     29 O         -55.8076  -25.3155   14.8814 O.2       12 UNK        -0.5489 
     30 CA        -53.6600  -24.4412   14.2961 C.3       11 UNK         0.0294 
     31 CB        -53.8400  -22.9279   14.4903 C.3       11 UNK        -0.2019 
     32 N         -53.0937  -25.0274   15.5127 N.am      11 UNK        -0.4493 
     33 C         -52.5072  -26.2286   15.5697 C.2       11 UNK         0.4932 
     34 O         -52.2564  -26.9239   14.5786 O.2       11 UNK        -0.5029 
     35 CA        -52.1435  -26.7449   16.9676 C.3       10 UNK         0.0280 
     36 CB        -53.3813  -27.2607   17.7211 C.3       10 UNK        -0.1976 
     37 N         -51.1809  -27.8246   16.8033 N.am      10 UNK        -0.4242 
     38 C         -50.2557  -28.2196   17.6836 C.2       10 UNK         0.5072 
     39 O         -50.1693  -27.7905   18.8349 O.2       10 UNK        -0.5224 
     40 CA        -49.2317  -29.2563   17.1776 C.3       9 UNK         0.0343 
     41 CB        -49.6881  -30.6807   17.5325 C.3       9 UNK        -0.2003 
     42 N         -48.9880  -29.1712   15.7308 N.am      9 UNK        -0.4272 
     43 C         -48.4421  -28.1134   15.1127 C.2       9 UNK         0.4988 
     44 O         -48.0095  -27.1235   15.7036 O.2       9 UNK        -0.5108 
     45 CA        -48.4216  -28.1220   13.5816 C.3       8 UNK         0.0248 
     46 CB        -48.5734  -29.5135   12.9315 C.3       8 UNK        -0.2001 
     47 N         -49.4741  -27.2205   13.1289 N.am      8 UNK        -0.4140 
     48 C         -49.4501  -26.5070   12.0017 C.2       8 UNK         0.5028 
     49 O         -48.5618  -26.5673   11.1461 O.2       8 UNK        -0.5428 
     50 CA        -50.6127  -25.5339   11.8184 C.3       7 UNK         0.0264 
     51 CB        -50.2264  -24.1176   12.2725 C.3       7 UNK        -0.1988 
     52 N         -50.9976  -25.5163   10.4156 N.am      7 UNK        -0.4454 
     53 C         -52.2607  -25.5587    9.9803 C.2       7 UNK         0.5027 
     54 O         -53.2416  -25.5084   10.7269 O.2       7 UNK        -0.5083 
     55 CA        -52.4375  -25.6774    8.4537 C.3       6 UNK         0.0844 
     56 C56       -53.9017  -25.9623    8.0081 C.3       14 UNK        -0.0967 
     57 S57       -53.9279  -27.0056    6.5120 S.3       14 UNK        -0.2604 
     58 C58       -54.2870  -28.6505    7.2194 C.3       14 UNK         0.0134 
     59 N         -51.8275  -24.5377    7.7600 N.am      6 UNK        -0.4116 
     60 C         -52.1650  -23.2465    7.8986 C.2       5 UNK         0.5034 
     61 O         -53.0839  -22.8499    8.6181 O.2       5 UNK        -0.5045 
     62 CA        -51.3495  -22.2265    7.0783 C.3       5 UNK         0.0224 
     63 CB        -51.5687  -20.7703    7.5442 C.3       5 UNK        -0.1978 
     64 N         -49.9134  -22.5268    7.0051 N.am      5 UNK        -0.4737 
     65 C         -49.0455  -22.6243    8.0218 C.2       4 UNK         0.5027 
     66 O         -49.3433  -22.5228    9.2137 O.2       4 UNK        -0.5211 
     67 CA        -47.5809  -22.8377    7.6238 C.3       4 UNK         0.0297 
     68 CB        -46.9877  -21.5536    7.0095 C.3       4 UNK        -0.1993 
     69 N         -46.8086  -23.2303    8.7999 N.am      4 UNK        -0.4486 
     70 C         -45.6213  -23.8435    8.7688 C.2       3 UNK         0.4961 
     71 O         -45.0640  -24.1843    7.7238 O.2       3 UNK        -0.5105 
     72 CA        -44.9070  -24.0672   10.1128 C.3       3 UNK         0.0299 
     73 CB        -45.8229  -24.2472   11.3397 C.3       3 UNK        -0.1972 
     74 N         -43.8119  -25.0435   10.0202 N.am      3 UNK        -0.4305 
     75 C         -43.7128  -26.3861   10.0246 C.2       2 UNK         0.5006 
     76 O         -42.6107  -26.9002    9.8375 O.2       2 UNK        -0.5106 
     77 CA        -44.8859  -27.3592   10.2907 C.3       2 UNK         0.0296 
     78 CB        -45.0847  -27.6274   11.7910 C.3       2 UNK        -0.2002 
     79 N         -46.1591  -27.0737    9.6319 N.am      2 UNK        -0.4032 
     80 C         -46.3708  -27.2056    8.3161 C.2       1 UNK         0.5000 
     81 O         -45.5116  -27.5728    7.5074 O.2       1 UNK        -0.5238 
     82 H82       -49.2387  -26.2511    3.6337 H         1 UNK         0.0889 
     83 H83       -47.4918  -26.2199    3.8836 H         1 UNK         0.0889 
     84 H84       -48.4189  -24.7188    3.9488 H         1 UNK         0.0889 
     85 H85       -46.8754  -26.9088    5.9569 H         1 UNK         0.3028 
     86 H86       -48.0852  -25.9571    8.3340 H         1 UNK         0.0864 
     87 H87       -48.7187  -28.2812    9.2314 H         1 UNK         0.0720 
     88 H88       -49.8193  -27.5718    8.0946 H         1 UNK         0.0720 
     89 H89       -49.9272  -31.5485    7.5498 H         1 UNK         0.0814 
     90 H90       -49.1014  -30.9929    8.9840 H         1 UNK         0.0814 
     91 H91       -51.8526  -29.7699    6.6816 H         1 UNK         0.1469 
     92 H92       -54.3553  -28.5623    9.9516 H         1 UNK         0.1381 
     93 H93       -50.4907  -30.2336   10.7235 H         1 UNK         0.1206 
     94 H94       -53.1899  -28.2796   12.1740 H         1 UNK         0.0813 
     95 H95       -51.7426  -29.1802   12.5301 H         1 UNK         0.0813 
     96 H96       -54.1918  -30.8914   14.9203 H         1 UNK         0.0638 
     97 H97       -53.4367  -29.3416   14.6580 H         1 UNK         0.0638 
     98 H98       -56.2730  -30.0599   13.7385 H         1 UNK         0.0568 
     99 H99       -56.8164  -27.8297   17.0321 H         1 UNK         0.3450 
    100 H100      -56.2527  -27.1012   15.5482 H         1 UNK         0.3450 
    101 H101      -54.6922  -27.6328   13.4097 H         1 UNK         0.2987 
    102 H102      -56.1347  -26.4053   11.1106 H         1 UNK         0.0766 
    103 H103      -58.4542  -25.7582   11.6548 H         1 UNK         0.0798 
    104 H104      -57.4287  -24.3349   11.6916 H         1 UNK         0.0798 
    105 H105      -57.9515  -25.0864   13.1986 H         1 UNK         0.0798 
    106 H106      -54.4535  -25.3211   12.0167 H         1 UNK         0.3198 
    107 H107      -52.9688  -24.5973   13.4679 H         1 UNK         0.0843 
    108 H108      -54.5302  -22.7031   15.3046 H         1 UNK         0.0831 
    109 H109      -54.2404  -22.4655   13.5869 H         1 UNK         0.0831 
    110 H110      -52.8899  -22.4400   14.7089 H         1 UNK         0.0831 
    111 H111      -53.2999  -24.5473   16.3769 H         1 UNK         0.3133 
    112 H112      -51.6819  -25.9278   17.5259 H         1 UNK         0.0566 
    113 H113      -53.1305  -27.5464   18.7427 H         1 UNK         0.0814 
    114 H114      -53.8110  -28.1336   17.2301 H         1 UNK         0.0814 
    115 H115      -54.1602  -26.4994   17.7799 H         1 UNK         0.0814 
    116 H116      -51.1684  -28.2137   15.8699 H         1 UNK         0.3091 
    117 H117      -48.2867  -29.0607   17.6888 H         1 UNK         0.0702 
    118 H118      -48.9375  -31.4201   17.2522 H         1 UNK         0.0785 
    119 H119      -50.6225  -30.9428   17.0343 H         1 UNK         0.0785 
    120 H120      -49.8528  -30.7805   18.6064 H         1 UNK         0.0785 
    121 H121      -49.3015  -29.9504   15.1701 H         1 UNK         0.2998 
    122 H122      -47.4572  -27.7073   13.2921 H         1 UNK         0.0697 
    123 H123      -49.5512  -29.9567   13.1189 H         1 UNK         0.0825 
    124 H124      -47.8150  -30.2048   13.3015 H         1 UNK         0.0825 
    125 H125      -48.4421  -29.4503   11.8510 H         1 UNK         0.0825 
    126 H126      -50.2426  -27.0748   13.7741 H         1 UNK         0.3029 
    127 H127      -51.4468  -25.8926   12.4194 H         1 UNK         0.0897 
    128 H128      -49.3612  -23.7425   11.7241 H         1 UNK         0.0792 
    129 H129      -49.9759  -24.1014   13.3339 H         1 UNK         0.0792 
    130 H130      -51.0461  -23.4154   12.1194 H         1 UNK         0.0792 
    131 H131      -50.2315  -25.5818    9.7602 H         1 UNK         0.3086 
    132 H132      -51.8340  -26.5423    8.1799 H         1 UNK         0.0583 
    133 H133      -54.4815  -26.4684    8.7802 H         1 UNK         0.1020 
    134 H134      -54.4446  -25.0375    7.8101 H         1 UNK         0.1020 
    135 H135      -55.2671  -28.6299    7.6986 H         1 UNK         0.0694 
    136 H136      -54.3640  -29.3732    6.4057 H         1 UNK         0.0694 
    137 H137      -51.0509  -24.7745    7.1426 H         1 UNK         0.2989 
    138 H138      -51.7295  -22.3025    6.0581 H         1 UNK         0.1055 
    139 H139      -51.2622  -20.6283    8.5812 H         1 UNK         0.0806 
    140 H140      -52.6204  -20.4893    7.4748 H         1 UNK         0.0806 
    141 H141      -51.0071  -20.0673    6.9291 H         1 UNK         0.0806 
    142 H142      -49.5563  -22.6700    6.0703 H         1 UNK         0.3061 
    143 H143      -47.5393  -23.6407    6.8878 H         1 UNK         0.0734 
    144 H144      -47.0022  -20.7263    7.7202 H         1 UNK         0.0832 
    145 H145      -45.9559  -21.7015    6.6906 H         1 UNK         0.0832 
    146 H146      -47.5492  -21.2370    6.1298 H         1 UNK         0.0832 
    147 H147      -47.2548  -23.0040    9.6811 H         1 UNK         0.3156 
    148 H148      -44.3830  -23.1260   10.2856 H         1 UNK         0.0589 
    149 H149      -45.2458  -24.4762   12.2353 H         1 UNK         0.0808 
    150 H150      -46.3711  -23.3291   11.5534 H         1 UNK         0.0808 
    151 H151      -46.5654  -25.0256   11.1995 H         1 UNK         0.0808 
    152 H152      -42.9367  -24.5836    9.8149 H         1 UNK         0.3098 
    153 H153      -44.5557  -28.3147    9.8760 H         1 UNK         0.0720 
    154 H154      -45.5491  -26.7924   12.3095 H         1 UNK         0.0791 
    155 H155      -44.1309  -27.8228   12.2830 H         1 UNK         0.0791 
    156 H156      -45.7070  -28.5087   11.9454 H         1 UNK         0.0791 
    157 H157      -46.9418  -26.8134   10.2306 H         1 UNK         0.3028 
@<TRIPOS>BOND
     1    1    2 1    
     2    1   82 1    
     3    1   83 1    
     4    1   84 1    
     5    2    3 2    
     6    2    4 am   BACKBONE|DICT|INTERRES
     7    4    5 1    
     8    4   85 1    
     9    5    6 1    
    10    5   80 1    
    11    5   86 1    
    12    6    7 1    
    13    6   87 1    
    14    6   88 1    
    15    7    8 1    
    16    8    9 1    
    17    8   89 1    
    18    8   90 1    
    19    9   10 ar   
    20    9   14 ar   
    21   10   11 ar   
    22   10   91 1    
    23   11   12 ar   
    24   11   58 1    
    25   12   13 ar   
    26   12   92 1    
    27   13   14 ar   
    28   13   15 1    
    29   14   93 1    
    30   15   16 1    
    31   15   94 1    
    32   15   95 1    
    33   16   17 1    
    34   17   18 1    
    35   17   96 1    
    36   17   97 1    
    37   18   19 1    
    38   18   22 1    
    39   18   98 1    
    40   19   20 am   BACKBONE|DICT|INTERRES
    41   19   21 2    
    42   20   99 1    
    43   20  100 1    
    44   22   23 am   BACKBONE|DICT|INTERRES
    45   22  101 1    
    46   23   24 2    
    47   23   25 1    
    48   25   26 1    
    49   25   27 1    
    50   25  102 1    
    51   26  103 1    
    52   26  104 1    
    53   26  105 1    
    54   27   28 am   BACKBONE|DICT|INTERRES
    55   27  106 1    
    56   28   29 2    
    57   28   30 1    
    58   30   31 1    
    59   30   32 1    
    60   30  107 1    
    61   31  108 1    
    62   31  109 1    
    63   31  110 1    
    64   32   33 am   BACKBONE|DICT|INTERRES
    65   32  111 1    
    66   33   34 2    
    67   33   35 1    
    68   35   36 1    
    69   35   37 1    
    70   35  112 1    
    71   36  113 1    
    72   36  114 1    
    73   36  115 1    
    74   37   38 am   BACKBONE|DICT|INTERRES
    75   37  116 1    
    76   38   39 2    
    77   38   40 1    
    78   40   41 1    
    79   40   42 1    
    80   40  117 1    
    81   41  118 1    
    82   41  119 1    
    83   41  120 1    
    84   42   43 am   BACKBONE|DICT|INTERRES
    85   42  121 1    
    86   43   44 2    
    87   43   45 1    
    88   45   46 1    
    89   45   47 1    
    90   45  122 1    
    91   46  123 1    
    92   46  124 1    
    93   46  125 1    
    94   47   48 am   BACKBONE|DICT|INTERRES
    95   47  126 1    
    96   48   49 2    
    97   48   50 1    
    98   50   51 1    
    99   50   52 1    
   100   50  127 1    
   101   51  128 1    
   102   51  129 1    
   103   51  130 1    
   104   52   53 am   BACKBONE|DICT|INTERRES
   105   52  131 1    
   106   53   54 2    
   107   53   55 1    
   108   55   56 1    
   109   55   59 1    
   110   55  132 1    
   111   56   57 1    
   112   56  133 1    
   113   56  134 1    
   114   57   58 1    
   115   58  135 1    
   116   58  136 1    
   117   59   60 am   BACKBONE|DICT|INTERRES
   118   59  137 1    
   119   60   61 2    
   120   60   62 1    
   121   62   63 1    
   122   62   64 1    
   123   62  138 1    
   124   63  139 1    
   125   63  140 1    
   126   63  141 1    
   127   64   65 am   BACKBONE|DICT|INTERRES
   128   64  142 1    
   129   65   66 2    
   130   65   67 1    
   131   67   68 1    
   132   67   69 1    
   133   67  143 1    
   134   68  144 1    
   135   68  145 1    
   136   68  146 1    
   137   69   70 am   BACKBONE|DICT|INTERRES
   138   69  147 1    
   139   70   71 2    
   140   70   72 1    
   141   72   73 1    
   142   72   74 1    
   143   72  148 1    
   144   73  149 1    
   145   73  150 1    
   146   73  151 1    
   147   74   75 am   BACKBONE|DICT|INTERRES
   148   74  152 1    
   149   75   76 2    
   150   75   77 1    
   151   77   78 1    
   152   77   79 1    
   153   77  153 1    
   154   78  154 1    
   155   78  155 1    
   156   78  156 1    
   157   79   80 am   BACKBONE|DICT|INTERRES
   158   79  157 1    
   159   80   81 2    
@<TRIPOS>SUBSTRUCTURE
     1 UNK         1 GROUP             0       ****    0 ROOT    
