@<TRIPOS>MOLECULE
3R207
157   159    1
SMALL
USER_CHARGES


@<TRIPOS>ATOM
      1 CA        -48.0928  -27.3225    2.0002 C.3       0 UNK        -0.1975 
      2 C         -49.3727  -28.1176    1.7515 C.2       0 UNK         0.4852 
      3 O         -49.4695  -28.7993    0.7320 O.2       0 UNK        -0.5216 
      4 N         -50.3827  -28.0552    2.6305 N.am      1 UNK        -0.4461 
      5 CA        -50.4008  -27.3597    3.9229 C.3       1 UNK         0.0864 
      6 C6        -51.8513  -27.0432    4.3740 C.3       14 UNK        -0.0898 
      7 S7        -52.9629  -28.4913    4.4723 S.3       14 UNK        -0.2598 
      8 C8        -54.4503  -27.7531    5.2263 C.3       14 UNK         0.0286 
      9 C9        -54.2916  -27.5838    6.7307 C.ar      14 UNK        -0.0844 
     10 C10       -53.7847  -26.3930    7.2586 C.ar      14 UNK        -0.0881 
     11 C11       -53.5743  -26.2585    8.6331 C.ar      14 UNK        -0.0643 
     12 C12       -53.9114  -27.3120    9.4879 C.ar      14 UNK        -0.0930 
     13 C13       -54.4641  -28.4913    8.9770 C.ar      14 UNK        -0.0827 
     14 C14       -54.6430  -28.6243    7.5963 C.ar      14 UNK        -0.1249 
     15 C15       -54.8405  -29.6305    9.9133 C.3       14 UNK         0.0141 
     16 S16       -56.1458  -29.1394   11.0830 S.3       14 UNK        -0.2313 
     17 C17       -56.3502  -30.6661   12.0614 C.3       14 UNK        -0.0915 
     18 CA        -55.6736  -30.5751   13.4618 C.3       13 UNK         0.0968 
     19 C         -56.1251  -31.7028   14.4413 C.2       13 UNK         0.5732 
     20 N         -55.2919  -32.1314   15.3833 N.am      13 UNK        -0.7310 
     21 O         -57.2573  -32.1764   14.3753 O.2       13 UNK        -0.5035 
     22 N         -54.2145  -30.3845   13.3857 N.am      13 UNK        -0.4233 
     23 C         -53.3216  -31.2712   12.9169 C.2       13 UNK         0.4989 
     24 O         -53.6273  -32.3686   12.4495 O.2       13 UNK        -0.4996 
     25 CA        -51.8302  -30.8835   12.9619 C.3       12 UNK         0.0216 
     26 CB        -51.2946  -30.5918   11.5481 C.3       12 UNK        -0.1964 
     27 N         -51.5454  -29.7373   13.8265 N.am      12 UNK        -0.4276 
     28 C         -51.5822  -29.7472   15.1656 C.2       12 UNK         0.5020 
     29 O         -51.7950  -30.7574   15.8368 O.2       12 UNK        -0.5489 
     30 CA        -51.3906  -28.3911   15.8713 C.3       11 UNK         0.0294 
     31 CB        -49.9348  -28.2228   16.3336 C.3       11 UNK        -0.2019 
     32 N         -51.7758  -27.2303   15.0583 N.am      11 UNK        -0.4493 
     33 C         -53.0035  -26.9944   14.5743 C.2       11 UNK         0.4932 
     34 O         -53.9541  -27.7649   14.7183 O.2       11 UNK        -0.5029 
     35 CA        -53.1685  -25.6960   13.7660 C.3       10 UNK         0.0280 
     36 CB        -54.6209  -25.4444   13.3095 C.3       10 UNK        -0.1976 
     37 N         -52.6210  -24.5224   14.4621 N.am      10 UNK        -0.4242 
     38 C         -52.9928  -24.0409   15.6585 C.2       10 UNK         0.5072 
     39 O         -53.8848  -24.5276   16.3563 O.2       10 UNK        -0.5224 
     40 CA        -52.2397  -22.7848   16.1364 C.3       9 UNK         0.0343 
     41 CB        -52.6276  -22.3432   17.5646 C.3       9 UNK        -0.2003 
     42 N         -50.7836  -22.9042   15.9959 N.am      9 UNK        -0.4272 
     43 C         -49.9584  -23.7520   16.6309 C.2       9 UNK         0.4988 
     44 O         -50.3394  -24.5853   17.4536 O.2       9 UNK        -0.5108 
     45 CA        -48.4516  -23.6497   16.3024 C.3       8 UNK         0.0248 
     46 CB        -47.7261  -24.9983   16.4660 C.3       8 UNK        -0.2001 
     47 N         -48.2052  -23.1414   14.9505 N.am      8 UNK        -0.4140 
     48 C         -48.0827  -21.8517   14.6080 C.2       8 UNK         0.5028 
     49 O         -48.0889  -20.9271   15.4205 O.2       8 UNK        -0.5428 
     50 CA        -47.9925  -21.5277   13.1036 C.3       7 UNK         0.0264 
     51 CB        -46.5252  -21.3587   12.6788 C.3       7 UNK        -0.1988 
     52 N         -48.6326  -22.5251   12.2383 N.am      7 UNK        -0.4454 
     53 C         -49.9336  -22.8545   12.2629 C.2       7 UNK         0.5027 
     54 O         -50.7664  -22.3219   12.9976 O.2       7 UNK        -0.5083 
     55 CA        -50.3615  -24.0456   11.3871 C.3       6 UNK         0.0844 
     56 C56       -50.6105  -23.6027    9.9259 C.3       14 UNK        -0.0967 
     57 S57       -51.1653  -24.9775    8.8692 S.3       14 UNK        -0.2604 
     58 C58       -52.9543  -24.9861    9.1851 C.3       14 UNK         0.0134 
     59 N         -49.4259  -25.1694   11.5225 N.am      6 UNK        -0.4116 
     60 C         -49.1781  -25.8271   12.6659 C.2       5 UNK         0.5034 
     61 O         -49.7885  -25.6252   13.7156 O.2       5 UNK        -0.5045 
     62 CA        -48.0338  -26.8501   12.6618 C.3       5 UNK         0.0224 
     63 CB        -48.5410  -28.2402   12.2562 C.3       5 UNK        -0.1978 
     64 N         -46.9569  -26.4397   11.7631 N.am      5 UNK        -0.4737 
     65 C         -45.9872  -25.5764   12.0898 C.2       4 UNK         0.5027 
     66 O         -45.8602  -25.0869   13.2117 O.2       4 UNK        -0.5211 
     67 CA        -45.0060  -25.1746   10.9732 C.3       4 UNK         0.0297 
     68 CB        -43.7985  -26.1249   10.9533 C.3       4 UNK        -0.1993 
     69 N         -45.6195  -25.1368    9.6411 N.am      4 UNK        -0.4486 
     70 C         -46.5680  -24.2649    9.2739 C.2       3 UNK         0.4961 
     71 O         -47.0204  -23.3937   10.0174 O.2       3 UNK        -0.5105 
     72 CA        -47.1433  -24.4097    7.8529 C.3       3 UNK         0.0299 
     73 CB        -46.2243  -23.7191    6.8326 C.3       3 UNK        -0.1972 
     74 N         -47.4394  -25.7776    7.3978 N.am      3 UNK        -0.4305 
     75 C         -48.0854  -26.7321    8.0868 C.2       2 UNK         0.5006 
     76 O         -48.3347  -26.6580    9.2885 O.2       2 UNK        -0.5106 
     77 CA        -48.5912  -27.9371    7.2808 C.3       2 UNK         0.0296 
     78 CB        -49.4536  -28.9013    8.1254 C.3       2 UNK        -0.2002 
     79 N         -49.3598  -27.4414    6.1389 N.am      2 UNK        -0.4032 
     80 C         -49.5925  -28.1141    5.0054 C.2       1 UNK         0.5000 
     81 O         -49.1840  -29.2602    4.7958 O.2       1 UNK        -0.5238 
     82 H82       -47.3994  -27.4485    1.1689 H         1 UNK         0.0889 
     83 H83       -47.5884  -27.6643    2.9031 H         1 UNK         0.0889 
     84 H84       -48.3043  -26.2577    2.0917 H         1 UNK         0.0889 
     85 H85       -51.2055  -28.6140    2.4539 H         1 UNK         0.3028 
     86 H86       -49.9046  -26.3970    3.7885 H         1 UNK         0.0864 
     87 H87       -51.8410  -26.5312    5.3354 H         1 UNK         0.0720 
     88 H88       -52.2967  -26.3350    3.6733 H         1 UNK         0.0720 
     89 H89       -55.3056  -28.3977    5.0180 H         1 UNK         0.0814 
     90 H90       -54.6712  -26.7957    4.7517 H         1 UNK         0.0814 
     91 H91       -53.5211  -25.5777    6.5993 H         1 UNK         0.1469 
     92 H92       -53.7498  -27.2154   10.5526 H         1 UNK         0.1381 
     93 H93       -55.0448  -29.5429    7.1907 H         1 UNK         0.1206 
     94 H94       -53.9544  -29.9427   10.4614 H         1 UNK         0.0813 
     95 H95       -55.1784  -30.5009    9.3487 H         1 UNK         0.0813 
     96 H96       -57.4256  -30.8180   12.1665 H         1 UNK         0.0638 
     97 H97       -55.9826  -31.5261   11.5002 H         1 UNK         0.0638 
     98 H98       -56.0480  -29.6652   13.9319 H         1 UNK         0.0568 
     99 H99       -55.5959  -32.8515   16.0191 H         1 UNK         0.3450 
    100 H100      -54.3637  -31.7448   15.4625 H         1 UNK         0.3450 
    101 H101      -53.8871  -29.5110   13.7845 H         1 UNK         0.2987 
    102 H102      -51.2924  -31.7488   13.3554 H         1 UNK         0.0766 
    103 H103      -51.6825  -29.6550   11.1469 H         1 UNK         0.0798 
    104 H104      -51.5683  -31.3844   10.8500 H         1 UNK         0.0798 
    105 H105      -50.2066  -30.5326   11.5445 H         1 UNK         0.0798 
    106 H106      -51.3837  -28.8519   13.3714 H         1 UNK         0.3198 
    107 H107      -52.0319  -28.3962   16.7552 H         1 UNK         0.0843 
    108 H108      -49.8164  -27.3251   16.9406 H         1 UNK         0.0831 
    109 H109      -49.2462  -28.1529   15.4913 H         1 UNK         0.0831 
    110 H110      -49.6181  -29.0684   16.9459 H         1 UNK         0.0831 
    111 H111      -51.0466  -26.5524   14.8488 H         1 UNK         0.3133 
    112 H112      -52.5717  -25.8403   12.8667 H         1 UNK         0.0566 
    113 H113      -54.6940  -24.5471   12.6952 H         1 UNK         0.0814 
    114 H114      -54.9930  -26.2771   12.7107 H         1 UNK         0.0814 
    115 H115      -55.2978  -25.3282   14.1565 H         1 UNK         0.0814 
    116 H116      -51.8520  -24.0518   14.0012 H         1 UNK         0.3091 
    117 H117      -52.5391  -21.9834   15.4592 H         1 UNK         0.0702 
    118 H118      -52.0974  -21.4371   17.8576 H         1 UNK         0.0785 
    119 H119      -52.4083  -23.1147   18.3033 H         1 UNK         0.0785 
    120 H120      -53.6950  -22.1284   17.6291 H         1 UNK         0.0785 
    121 H121      -50.3729  -22.2907   15.3040 H         1 UNK         0.2998 
    122 H122      -48.0206  -22.9559   17.0269 H         1 UNK         0.0697 
    123 H123      -46.6663  -24.9110   16.2256 H         1 UNK         0.0825 
    124 H124      -47.7953  -25.3611   17.4922 H         1 UNK         0.0825 
    125 H125      -48.1517  -25.7654   15.8206 H         1 UNK         0.0825 
    126 H126      -48.2093  -23.8318   14.2126 H         1 UNK         0.3029 
    127 H127      -48.5078  -20.5779   12.9455 H         1 UNK         0.0897 
    128 H128      -46.4472  -21.0438   11.6379 H         1 UNK         0.0792 
    129 H129      -46.0261  -20.6014   13.2850 H         1 UNK         0.0792 
    130 H130      -45.9650  -22.2881   12.7892 H         1 UNK         0.0792 
    131 H131      -48.0296  -22.9832   11.5567 H         1 UNK         0.3086 
    132 H132      -51.3185  -24.3861   11.7775 H         1 UNK         0.0583 
    133 H133      -51.3558  -22.8055    9.8851 H         1 UNK         0.1020 
    134 H134      -49.7017  -23.1858    9.4904 H         1 UNK         0.1020 
    135 H135      -53.1421  -24.9070   10.2567 H         1 UNK         0.0694 
    136 H136      -53.4131  -24.1122    8.7204 H         1 UNK         0.0694 
    137 H137      -48.9427  -25.4680   10.6799 H         1 UNK         0.2989 
    138 H138      -47.6381  -26.9177   13.6776 H         1 UNK         0.1055 
    139 H139      -49.2197  -28.6325   13.0103 H         1 UNK         0.0806 
    140 H140      -47.7210  -28.9526   12.1644 H         1 UNK         0.0806 
    141 H141      -49.0763  -28.2207   11.3064 H         1 UNK         0.0806 
    142 H142      -47.0566  -26.7189   10.7922 H         1 UNK         0.3061 
    143 H143      -44.6450  -24.1696   11.2029 H         1 UNK         0.0734 
    144 H144      -43.0515  -25.8042   10.2270 H         1 UNK         0.0832 
    145 H145      -43.3089  -26.1520   11.9280 H         1 UNK         0.0832 
    146 H146      -44.0914  -27.1466   10.7081 H         1 UNK         0.0832 
    147 H147      -45.3201  -25.8318    8.9725 H         1 UNK         0.3156 
    148 H148      -48.0961  -23.8780    7.8465 H         1 UNK         0.0589 
    149 H149      -45.2729  -24.2419    6.7264 H         1 UNK         0.0808 
    150 H150      -46.6902  -23.6655    5.8485 H         1 UNK         0.0808 
    151 H151      -46.0011  -22.6952    7.1366 H         1 UNK         0.0808 
    152 H152      -47.2500  -25.9607    6.4229 H         1 UNK         0.3098 
    153 H153      -47.7122  -28.4751    6.9200 H         1 UNK         0.0720 
    154 H154      -48.8921  -29.2853    8.9777 H         1 UNK         0.0791 
    155 H155      -49.7811  -29.7618    7.5422 H         1 UNK         0.0791 
    156 H156      -50.3437  -28.4044    8.5152 H         1 UNK         0.0791 
    157 H157      -49.7331  -26.5075    6.2476 H         1 UNK         0.3028 
@<TRIPOS>BOND
     1    1    2 1    
     2    1   82 1    
     3    1   83 1    
     4    1   84 1    
     5    2    3 2    
     6    2    4 am   BACKBONE|DICT|INTERRES
     7    4    5 1    
     8    4   85 1    
     9    5    6 1    
    10    5   80 1    
    11    5   86 1    
    12    6    7 1    
    13    6   87 1    
    14    6   88 1    
    15    7    8 1    
    16    8    9 1    
    17    8   89 1    
    18    8   90 1    
    19    9   10 ar   
    20    9   14 ar   
    21   10   11 ar   
    22   10   91 1    
    23   11   12 ar   
    24   11   58 1    
    25   12   13 ar   
    26   12   92 1    
    27   13   14 ar   
    28   13   15 1    
    29   14   93 1    
    30   15   16 1    
    31   15   94 1    
    32   15   95 1    
    33   16   17 1    
    34   17   18 1    
    35   17   96 1    
    36   17   97 1    
    37   18   19 1    
    38   18   22 1    
    39   18   98 1    
    40   19   20 am   BACKBONE|DICT|INTERRES
    41   19   21 2    
    42   20   99 1    
    43   20  100 1    
    44   22   23 am   BACKBONE|DICT|INTERRES
    45   22  101 1    
    46   23   24 2    
    47   23   25 1    
    48   25   26 1    
    49   25   27 1    
    50   25  102 1    
    51   26  103 1    
    52   26  104 1    
    53   26  105 1    
    54   27   28 am   BACKBONE|DICT|INTERRES
    55   27  106 1    
    56   28   29 2    
    57   28   30 1    
    58   30   31 1    
    59   30   32 1    
    60   30  107 1    
    61   31  108 1    
    62   31  109 1    
    63   31  110 1    
    64   32   33 am   BACKBONE|DICT|INTERRES
    65   32  111 1    
    66   33   34 2    
    67   33   35 1    
    68   35   36 1    
    69   35   37 1    
    70   35  112 1    
    71   36  113 1    
    72   36  114 1    
    73   36  115 1    
    74   37   38 am   BACKBONE|DICT|INTERRES
    75   37  116 1    
    76   38   39 2    
    77   38   40 1    
    78   40   41 1    
    79   40   42 1    
    80   40  117 1    
    81   41  118 1    
    82   41  119 1    
    83   41  120 1    
    84   42   43 am   BACKBONE|DICT|INTERRES
    85   42  121 1    
    86   43   44 2    
    87   43   45 1    
    88   45   46 1    
    89   45   47 1    
    90   45  122 1    
    91   46  123 1    
    92   46  124 1    
    93   46  125 1    
    94   47   48 am   BACKBONE|DICT|INTERRES
    95   47  126 1    
    96   48   49 2    
    97   48   50 1    
    98   50   51 1    
    99   50   52 1    
   100   50  127 1    
   101   51  128 1    
   102   51  129 1    
   103   51  130 1    
   104   52   53 am   BACKBONE|DICT|INTERRES
   105   52  131 1    
   106   53   54 2    
   107   53   55 1    
   108   55   56 1    
   109   55   59 1    
   110   55  132 1    
   111   56   57 1    
   112   56  133 1    
   113   56  134 1    
   114   57   58 1    
   115   58  135 1    
   116   58  136 1    
   117   59   60 am   BACKBONE|DICT|INTERRES
   118   59  137 1    
   119   60   61 2    
   120   60   62 1    
   121   62   63 1    
   122   62   64 1    
   123   62  138 1    
   124   63  139 1    
   125   63  140 1    
   126   63  141 1    
   127   64   65 am   BACKBONE|DICT|INTERRES
   128   64  142 1    
   129   65   66 2    
   130   65   67 1    
   131   67   68 1    
   132   67   69 1    
   133   67  143 1    
   134   68  144 1    
   135   68  145 1    
   136   68  146 1    
   137   69   70 am   BACKBONE|DICT|INTERRES
   138   69  147 1    
   139   70   71 2    
   140   70   72 1    
   141   72   73 1    
   142   72   74 1    
   143   72  148 1    
   144   73  149 1    
   145   73  150 1    
   146   73  151 1    
   147   74   75 am   BACKBONE|DICT|INTERRES
   148   74  152 1    
   149   75   76 2    
   150   75   77 1    
   151   77   78 1    
   152   77   79 1    
   153   77  153 1    
   154   78  154 1    
   155   78  155 1    
   156   78  156 1    
   157   79   80 am   BACKBONE|DICT|INTERRES
   158   79  157 1    
   159   80   81 2    
@<TRIPOS>SUBSTRUCTURE
     1 UNK         1 GROUP             0       ****    0 ROOT    
