@<TRIPOS>MOLECULE
3R207
157   159    1
SMALL
USER_CHARGES


@<TRIPOS>ATOM
      1 CA        -45.2089  -30.7612    6.4236 C.3       0 UNK        -0.1975 
      2 C         -46.2884  -30.1313    5.5559 C.2       0 UNK         0.4852 
      3 O         -46.0875  -29.9651    4.3526 O.2       0 UNK        -0.5216 
      4 N         -47.4296  -29.7712    6.1601 N.am      1 UNK        -0.4461 
      5 CA        -48.5834  -29.1533    5.4884 C.3       1 UNK         0.0864 
      6 C6        -49.8841  -29.3710    6.3102 C.3       14 UNK        -0.0898 
      7 S7        -51.3351  -29.6534    5.2412 S.3       14 UNK        -0.2598 
      8 C8        -52.5535  -30.3008    6.4415 C.3       14 UNK         0.0286 
      9 C9        -53.0346  -29.3049    7.4996 C.ar      14 UNK        -0.0844 
     10 C10       -52.9272  -27.9193    7.3330 C.ar      14 UNK        -0.0881 
     11 C11       -53.3749  -27.0390    8.3211 C.ar      14 UNK        -0.0643 
     12 C12       -53.9577  -27.5483    9.4863 C.ar      14 UNK        -0.0930 
     13 C13       -54.1039  -28.9295    9.6553 C.ar      14 UNK        -0.0827 
     14 C14       -53.6380  -29.7967    8.6609 C.ar      14 UNK        -0.1249 
     15 C15       -54.8084  -29.4951   10.8819 C.3       14 UNK         0.0141 
     16 S16       -53.6876  -30.5029   11.9016 S.3       14 UNK        -0.2313 
     17 C17       -54.8670  -31.3600   13.0000 C.3       14 UNK        -0.0915 
     18 CA        -54.8813  -30.8539   14.4704 C.3       13 UNK         0.0968 
     19 C         -53.6197  -31.2269   15.2992 C.2       13 UNK         0.5732 
     20 N         -53.1009  -30.3542   16.1556 N.am      13 UNK        -0.7310 
     21 O         -53.1217  -32.3457   15.1984 O.2       13 UNK        -0.5035 
     22 N         -55.3001  -29.4481   14.5943 N.am      13 UNK        -0.4233 
     23 C         -56.5781  -29.0505   14.5912 C.2       13 UNK         0.4989 
     24 O         -57.5316  -29.8098   14.4129 O.2       13 UNK        -0.4996 
     25 CA        -56.8617  -27.5661   14.8461 C.3       12 UNK         0.0216 
     26 CB        -56.9758  -27.3049   16.3576 C.3       12 UNK        -0.1964 
     27 N         -55.8254  -26.6924   14.2976 N.am      12 UNK        -0.4276 
     28 C         -55.9894  -25.8675   13.2540 C.2       12 UNK         0.5020 
     29 O         -56.9916  -25.8738   12.5371 O.2       12 UNK        -0.5489 
     30 CA        -54.8593  -24.8555   12.9537 C.3       11 UNK         0.0294 
     31 CB        -55.4053  -23.4798   12.5209 C.3       11 UNK        -0.2019 
     32 N         -53.8802  -24.7013   14.0365 N.am      11 UNK        -0.4493 
     33 C         -54.0866  -24.3350   15.3115 C.2       11 UNK         0.4932 
     34 O         -55.1638  -23.9189   15.7397 O.2       11 UNK        -0.5029 
     35 CA        -52.8999  -24.5270   16.2807 C.3       10 UNK         0.0280 
     36 CB        -53.3640  -24.7899   17.7286 C.3       10 UNK        -0.1976 
     37 N         -51.9515  -25.5678   15.8549 N.am      10 UNK        -0.4242 
     38 C         -52.2070  -26.8646   15.6079 C.2       10 UNK         0.5072 
     39 O         -53.3248  -27.3790   15.7324 O.2       10 UNK        -0.5224 
     40 CA        -51.0566  -27.7356   15.0635 C.3       9 UNK         0.0343 
     41 CB        -51.4616  -28.3642   13.7227 C.3       9 UNK        -0.2003 
     42 N         -49.7996  -27.0152   14.8636 N.am      9 UNK        -0.4272 
     43 C         -48.8989  -26.7377   15.8141 C.2       9 UNK         0.4988 
     44 O         -49.0012  -27.1031   16.9853 O.2       9 UNK        -0.5108 
     45 CA        -47.6987  -25.8700   15.3910 C.3       8 UNK         0.0248 
     46 CB        -46.5710  -26.7476   14.8255 C.3       8 UNK        -0.2001 
     47 N         -48.0500  -24.8289   14.4167 N.am      8 UNK        -0.4140 
     48 C         -48.9315  -23.8432   14.6460 C.2       8 UNK         0.5028 
     49 O         -49.5160  -23.6836   15.7180 O.2       8 UNK        -0.5428 
     50 CA        -49.2686  -22.9142   13.4691 C.3       7 UNK         0.0264 
     51 CB        -48.1478  -21.8884   13.2379 C.3       7 UNK        -0.1988 
     52 N         -49.5466  -23.6397   12.2272 N.am      7 UNK        -0.4454 
     53 C         -50.5373  -24.5311   12.0661 C.2       7 UNK         0.5027 
     54 O         -51.3409  -24.8305   12.9469 O.2       7 UNK        -0.5083 
     55 CA        -50.6313  -25.2352   10.6996 C.3       6 UNK         0.0844 
     56 C56       -51.2743  -24.2736    9.6714 C.3       14 UNK        -0.0967 
     57 S57       -51.5176  -25.0051    8.0230 S.3       14 UNK        -0.2604 
     58 C58       -53.2586  -25.5405    8.0874 C.3       14 UNK         0.0134 
     59 N         -49.3290  -25.7739   10.2870 N.am      6 UNK        -0.4116 
     60 C         -48.6085  -26.6534   11.0036 C.2       5 UNK         0.5034 
     61 O         -48.9972  -27.1779   12.0457 O.2       5 UNK        -0.5045 
     62 CA        -47.1790  -26.9427   10.5266 C.3       5 UNK         0.0224 
     63 CB        -47.1621  -28.0163    9.4252 C.3       5 UNK        -0.1978 
     64 N         -46.5138  -25.7204   10.0708 N.am      5 UNK        -0.4737 
     65 C         -46.1098  -24.7381   10.8905 C.2       4 UNK         0.5027 
     66 O         -46.2028  -24.7922   12.1167 O.2       4 UNK        -0.5211 
     67 CA        -45.5436  -23.4668   10.2332 C.3       4 UNK         0.0297 
     68 CB        -44.0421  -23.6306    9.9510 C.3       4 UNK        -0.1993 
     69 N         -46.2397  -23.1089    8.9947 N.am      4 UNK        -0.4486 
     70 C         -47.5211  -22.7193    8.9311 C.2       3 UNK         0.4961 
     71 O         -48.2293  -22.5428    9.9218 O.2       3 UNK        -0.5105 
     72 CA        -48.1328  -22.5528    7.5261 C.3       3 UNK         0.0299 
     73 CB        -47.9474  -21.1113    7.0277 C.3       3 UNK        -0.1972 
     74 N         -47.6039  -23.4927    6.5273 N.am      3 UNK        -0.4305 
     75 C         -47.6443  -24.8278    6.6417 C.2       2 UNK         0.5006 
     76 O         -48.1259  -25.4098    7.6151 O.2       2 UNK        -0.5106 
     77 CA        -46.9585  -25.6369    5.5302 C.3       2 UNK         0.0296 
     78 CB        -45.4296  -25.4826    5.6211 C.3       2 UNK        -0.2002 
     79 N         -47.2836  -27.0580    5.6520 N.am      2 UNK        -0.4032 
     80 C         -48.3638  -27.6590    5.1345 C.2       1 UNK         0.5000 
     81 O         -49.1661  -27.0838    4.3962 O.2       1 UNK        -0.5238 
     82 H82       -44.9820  -31.7660    6.0683 H         1 UNK         0.0889 
     83 H83       -45.5126  -30.8316    7.4679 H         1 UNK         0.0889 
     84 H84       -44.2957  -30.1687    6.3756 H         1 UNK         0.0889 
     85 H85       -47.5413  -29.9498    7.1479 H         1 UNK         0.3028 
     86 H86       -48.6933  -29.6725    4.5334 H         1 UNK         0.0864 
     87 H87       -50.0798  -28.5385    6.9898 H         1 UNK         0.0720 
     88 H88       -49.7889  -30.2533    6.9454 H         1 UNK         0.0720 
     89 H89       -52.1255  -31.1781    6.9292 H         1 UNK         0.0814 
     90 H90       -53.4237  -30.6532    5.8864 H         1 UNK         0.0814 
     91 H91       -52.4908  -27.5074    6.4342 H         1 UNK         0.1469 
     92 H92       -54.3225  -26.8710   10.2452 H         1 UNK         0.1381 
     93 H93       -53.7532  -30.8642    8.7933 H         1 UNK         0.1206 
     94 H94       -55.2297  -28.6985   11.4972 H         1 UNK         0.0813 
     95 H95       -55.6475  -30.1062   10.5468 H         1 UNK         0.0813 
     96 H96       -55.8707  -31.2815   12.5808 H         1 UNK         0.0638 
     97 H97       -54.6335  -32.4256   12.9710 H         1 UNK         0.0638 
     98 H98       -55.6486  -31.4452   14.9739 H         1 UNK         0.0568 
     99 H99       -52.3020  -30.6367   16.6997 H         1 UNK         0.3450 
    100 H100      -53.4753  -29.4224   16.2643 H         1 UNK         0.3450 
    101 H101      -54.5651  -28.7741   14.7680 H         1 UNK         0.2987 
    102 H102      -57.8288  -27.3362   14.3938 H         1 UNK         0.0766 
    103 H103      -57.2383  -26.2658   16.5587 H         1 UNK         0.0798 
    104 H104      -56.0407  -27.5175   16.8780 H         1 UNK         0.0798 
    105 H105      -57.7505  -27.9281   16.8065 H         1 UNK         0.0798 
    106 H106      -54.9528  -26.6476   14.8152 H         1 UNK         0.3198 
    107 H107      -54.3036  -25.2693   12.1114 H         1 UNK         0.0843 
    108 H108      -56.0204  -23.0273   13.2993 H         1 UNK         0.0831 
    109 H109      -56.0241  -23.5655   11.6269 H         1 UNK         0.0831 
    110 H110      -54.5961  -22.7880   12.2871 H         1 UNK         0.0831 
    111 H111      -52.9218  -24.9387   13.7770 H         1 UNK         0.3133 
    112 H112      -52.3444  -23.5883   16.2714 H         1 UNK         0.0566 
    113 H113      -52.5147  -24.9152   18.4002 H         1 UNK         0.0814 
    114 H114      -53.9555  -23.9565   18.1096 H         1 UNK         0.0814 
    115 H115      -53.9820  -25.6859   17.7978 H         1 UNK         0.0814 
    116 H116      -51.0111  -25.2321   15.6766 H         1 UNK         0.3091 
    117 H117      -50.8898  -28.5387   15.7833 H         1 UNK         0.0702 
    118 H118      -52.3786  -28.9378   13.8261 H         1 UNK         0.0785 
    119 H119      -51.6375  -27.6095   12.9556 H         1 UNK         0.0785 
    120 H120      -50.6957  -29.0462   13.3533 H         1 UNK         0.0785 
    121 H121      -49.6003  -26.7291   13.9094 H         1 UNK         0.2998 
    122 H122      -47.3241  -25.3680   16.2853 H         1 UNK         0.0697 
    123 H123      -46.8791  -27.2610   13.9142 H         1 UNK         0.0825 
    124 H124      -46.2707  -27.5104   15.5451 H         1 UNK         0.0825 
    125 H125      -45.6861  -26.1552   14.5921 H         1 UNK         0.0825 
    126 H126      -47.5774  -24.8663   13.5168 H         1 UNK         0.3029 
    127 H127      -50.1764  -22.3680   13.7344 H         1 UNK         0.0897 
    128 H128      -48.4182  -21.1755   12.4587 H         1 UNK         0.0792 
    129 H129      -47.2145  -22.3674   12.9416 H         1 UNK         0.0792 
    130 H130      -47.9482  -21.3171   14.1454 H         1 UNK         0.0792 
    131 H131      -48.9617  -23.4089   11.4264 H         1 UNK         0.3086 
    132 H132      -51.3006  -26.0899   10.8196 H         1 UNK         0.0583 
    133 H133      -52.2318  -23.9035   10.0429 H         1 UNK         0.1020 
    134 H134      -50.6571  -23.3846    9.5402 H         1 UNK         0.1020 
    135 H135      -53.8137  -24.9805    8.8408 H         1 UNK         0.0694 
    136 H136      -53.7270  -25.3002    7.1319 H         1 UNK         0.0694 
    137 H137      -48.9523  -25.4419    9.4038 H         1 UNK         0.2989 
    138 H138      -46.6176  -27.3311   11.3796 H         1 UNK         0.1055 
    139 H139      -47.5388  -28.9642    9.8117 H         1 UNK         0.0806 
    140 H140      -46.1515  -28.1946    9.0577 H         1 UNK         0.0806 
    141 H141      -47.7907  -27.7458    8.5777 H         1 UNK         0.0806 
    142 H142      -46.5050  -25.5571    9.0732 H         1 UNK         0.3061 
    143 H143      -45.6704  -22.6439   10.9400 H         1 UNK         0.0734 
    144 H144      -43.6086  -22.7103    9.5593 H         1 UNK         0.0832 
    145 H145      -43.5001  -23.8780   10.8650 H         1 UNK         0.0832 
    146 H146      -43.8481  -24.4277    9.2322 H         1 UNK         0.0832 
    147 H147      -45.7286  -23.2162    8.1311 H         1 UNK         0.3156 
    148 H148      -49.2037  -22.7456    7.6138 H         1 UNK         0.0589 
    149 H149      -46.8950  -20.8646    6.8821 H         1 UNK         0.0808 
    150 H150      -48.4660  -20.9475    6.0828 H         1 UNK         0.0808 
    151 H151      -48.3534  -20.3962    7.7448 H         1 UNK         0.0808 
    152 H152      -47.1828  -23.0880    5.7031 H         1 UNK         0.3098 
    153 H153      -47.2999  -25.2633    4.5625 H         1 UNK         0.0720 
    154 H154      -44.9283  -26.0724    4.8530 H         1 UNK         0.0791 
    155 H155      -45.0453  -25.8037    6.5904 H         1 UNK         0.0791 
    156 H156      -45.1241  -24.4459    5.4751 H         1 UNK         0.0791 
    157 H157      -46.6960  -27.6020    6.2642 H         1 UNK         0.3028 
@<TRIPOS>BOND
     1    1    2 1    
     2    1   82 1    
     3    1   83 1    
     4    1   84 1    
     5    2    3 2    
     6    2    4 am   BACKBONE|DICT|INTERRES
     7    4    5 1    
     8    4   85 1    
     9    5    6 1    
    10    5   80 1    
    11    5   86 1    
    12    6    7 1    
    13    6   87 1    
    14    6   88 1    
    15    7    8 1    
    16    8    9 1    
    17    8   89 1    
    18    8   90 1    
    19    9   10 ar   
    20    9   14 ar   
    21   10   11 ar   
    22   10   91 1    
    23   11   12 ar   
    24   11   58 1    
    25   12   13 ar   
    26   12   92 1    
    27   13   14 ar   
    28   13   15 1    
    29   14   93 1    
    30   15   16 1    
    31   15   94 1    
    32   15   95 1    
    33   16   17 1    
    34   17   18 1    
    35   17   96 1    
    36   17   97 1    
    37   18   19 1    
    38   18   22 1    
    39   18   98 1    
    40   19   20 am   BACKBONE|DICT|INTERRES
    41   19   21 2    
    42   20   99 1    
    43   20  100 1    
    44   22   23 am   BACKBONE|DICT|INTERRES
    45   22  101 1    
    46   23   24 2    
    47   23   25 1    
    48   25   26 1    
    49   25   27 1    
    50   25  102 1    
    51   26  103 1    
    52   26  104 1    
    53   26  105 1    
    54   27   28 am   BACKBONE|DICT|INTERRES
    55   27  106 1    
    56   28   29 2    
    57   28   30 1    
    58   30   31 1    
    59   30   32 1    
    60   30  107 1    
    61   31  108 1    
    62   31  109 1    
    63   31  110 1    
    64   32   33 am   BACKBONE|DICT|INTERRES
    65   32  111 1    
    66   33   34 2    
    67   33   35 1    
    68   35   36 1    
    69   35   37 1    
    70   35  112 1    
    71   36  113 1    
    72   36  114 1    
    73   36  115 1    
    74   37   38 am   BACKBONE|DICT|INTERRES
    75   37  116 1    
    76   38   39 2    
    77   38   40 1    
    78   40   41 1    
    79   40   42 1    
    80   40  117 1    
    81   41  118 1    
    82   41  119 1    
    83   41  120 1    
    84   42   43 am   BACKBONE|DICT|INTERRES
    85   42  121 1    
    86   43   44 2    
    87   43   45 1    
    88   45   46 1    
    89   45   47 1    
    90   45  122 1    
    91   46  123 1    
    92   46  124 1    
    93   46  125 1    
    94   47   48 am   BACKBONE|DICT|INTERRES
    95   47  126 1    
    96   48   49 2    
    97   48   50 1    
    98   50   51 1    
    99   50   52 1    
   100   50  127 1    
   101   51  128 1    
   102   51  129 1    
   103   51  130 1    
   104   52   53 am   BACKBONE|DICT|INTERRES
   105   52  131 1    
   106   53   54 2    
   107   53   55 1    
   108   55   56 1    
   109   55   59 1    
   110   55  132 1    
   111   56   57 1    
   112   56  133 1    
   113   56  134 1    
   114   57   58 1    
   115   58  135 1    
   116   58  136 1    
   117   59   60 am   BACKBONE|DICT|INTERRES
   118   59  137 1    
   119   60   61 2    
   120   60   62 1    
   121   62   63 1    
   122   62   64 1    
   123   62  138 1    
   124   63  139 1    
   125   63  140 1    
   126   63  141 1    
   127   64   65 am   BACKBONE|DICT|INTERRES
   128   64  142 1    
   129   65   66 2    
   130   65   67 1    
   131   67   68 1    
   132   67   69 1    
   133   67  143 1    
   134   68  144 1    
   135   68  145 1    
   136   68  146 1    
   137   69   70 am   BACKBONE|DICT|INTERRES
   138   69  147 1    
   139   70   71 2    
   140   70   72 1    
   141   72   73 1    
   142   72   74 1    
   143   72  148 1    
   144   73  149 1    
   145   73  150 1    
   146   73  151 1    
   147   74   75 am   BACKBONE|DICT|INTERRES
   148   74  152 1    
   149   75   76 2    
   150   75   77 1    
   151   77   78 1    
   152   77   79 1    
   153   77  153 1    
   154   78  154 1    
   155   78  155 1    
   156   78  156 1    
   157   79   80 am   BACKBONE|DICT|INTERRES
   158   79  157 1    
   159   80   81 2    
@<TRIPOS>SUBSTRUCTURE
     1 UNK         1 GROUP             0       ****    0 ROOT    
