@<TRIPOS>MOLECULE
3R207
157   159    1
SMALL
USER_CHARGES


@<TRIPOS>ATOM
      1 CA        -46.0823  -32.6048    4.8788 C.3       0 UNK        -0.1975 
      2 C         -46.8528  -31.4030    4.3526 C.2       0 UNK         0.4852 
      3 O         -46.4084  -30.7601    3.4008 O.2       0 UNK        -0.5216 
      4 N         -48.0043  -31.0955    4.9649 N.am      1 UNK        -0.4461 
      5 CA        -48.8898  -29.9841    4.5880 C.3       1 UNK         0.0864 
      6 C6        -50.2660  -30.0658    5.2941 C.3       14 UNK        -0.0898 
      7 S7        -51.0878  -31.6884    5.1703 S.3       14 UNK        -0.2598 
      8 C8        -52.7845  -31.2722    5.7069 C.3       14 UNK         0.0286 
      9 C9        -52.8359  -30.4060    6.9640 C.ar      14 UNK        -0.0844 
     10 C10       -52.1470  -30.7820    8.1242 C.ar      14 UNK        -0.0881 
     11 C11       -52.1783  -29.9740    9.2654 C.ar      14 UNK        -0.0643 
     12 C12       -52.9414  -28.8039    9.2518 C.ar      14 UNK        -0.0930 
     13 C13       -53.6220  -28.4089    8.0990 C.ar      14 UNK        -0.0827 
     14 C14       -53.5685  -29.2135    6.9579 C.ar      14 UNK        -0.1249 
     15 C15       -54.3878  -27.0970    8.0960 C.3       14 UNK         0.0141 
     16 S16       -55.9676  -27.2593    8.9774 S.3       14 UNK        -0.2313 
     17 C17       -56.2855  -25.5164    9.4120 C.3       14 UNK        -0.0915 
     18 CA        -55.6744  -25.1126   10.7823 C.3       13 UNK         0.0968 
     19 C         -55.9158  -23.6014   11.0684 C.2       13 UNK         0.5732 
     20 N         -56.6864  -23.2281   12.0830 N.am      13 UNK        -0.7310 
     21 O         -55.3904  -22.7517   10.3536 O.2       13 UNK        -0.5035 
     22 N         -56.0912  -26.0339   11.8533 N.am      13 UNK        -0.4233 
     23 C         -55.4996  -26.1474   13.0482 C.2       13 UNK         0.4989 
     24 O         -54.5753  -25.4234   13.4222 O.2       13 UNK        -0.4996 
     25 CA        -56.0437  -27.2332   14.0021 C.3       12 UNK         0.0216 
     26 CB        -56.8346  -28.3587   13.2942 C.3       12 UNK        -0.1964 
     27 N         -54.9815  -27.7917   14.8474 N.am      12 UNK        -0.4276 
     28 C         -53.8853  -28.4511   14.4445 C.2       12 UNK         0.5020 
     29 O         -53.6614  -28.7776   13.2773 O.2       12 UNK        -0.5489 
     30 CA        -52.8544  -28.7607   15.5441 C.3       11 UNK         0.0294 
     31 CB        -51.6558  -29.5784   15.0258 C.3       11 UNK        -0.2019 
     32 N         -52.3592  -27.5124   16.1234 N.am      11 UNK        -0.4493 
     33 C         -52.9244  -26.8386   17.1329 C.2       11 UNK         0.4932 
     34 O         -53.9405  -27.2279   17.7116 O.2       11 UNK        -0.5029 
     35 CA        -52.2830  -25.4917   17.5273 C.3       10 UNK         0.0280 
     36 CB        -52.5635  -25.0978   18.9930 C.3       10 UNK        -0.1976 
     37 N         -50.8504  -25.4103   17.2160 N.am      10 UNK        -0.4242 
     38 C         -49.8504  -26.1405   17.7359 C.2       10 UNK         0.5072 
     39 O         -50.0014  -26.9555   18.6473 O.2       10 UNK        -0.5224 
     40 CA        -48.4413  -25.9653   17.1303 C.3       9 UNK         0.0343 
     41 CB        -47.9788  -27.2713   16.4610 C.3       9 UNK        -0.2003 
     42 N         -48.3466  -24.8788   16.1509 N.am      9 UNK        -0.4272 
     43 C         -48.2659  -23.5754   16.4515 C.2       9 UNK         0.4988 
     44 O         -48.1875  -23.1419   17.6012 O.2       9 UNK        -0.5108 
     45 CA        -48.3197  -22.5847   15.2731 C.3       8 UNK         0.0248 
     46 CB        -46.9165  -22.3639   14.6868 C.3       8 UNK        -0.2001 
     47 N         -49.2449  -22.9956   14.2096 N.am      8 UNK        -0.4140 
     48 C         -50.5683  -23.1475   14.3729 C.2       8 UNK         0.5028 
     49 O         -51.1562  -22.9095   15.4279 O.2       8 UNK        -0.5428 
     50 CA        -51.3670  -23.7193   13.1898 C.3       7 UNK         0.0264 
     51 CB        -51.6879  -22.6279   12.1574 C.3       7 UNK        -0.1988 
     52 N         -50.7016  -24.8499   12.5368 N.am      7 UNK        -0.4454 
     53 C         -50.3987  -26.0057   13.1473 C.2       7 UNK         0.5027 
     54 O         -50.6616  -26.2438   14.3245 O.2       7 UNK        -0.5083 
     55 CA        -49.6272  -27.0621   12.3318 C.3       6 UNK         0.0844 
     56 C56       -50.5832  -27.7957   11.3662 C.3       14 UNK        -0.0967 
     57 S57       -49.8794  -29.3355   10.6899 S.3       14 UNK        -0.2604 
     58 C58       -51.3825  -30.3570   10.5071 C.3       14 UNK         0.0134 
     59 N         -48.4659  -26.4742   11.6574 N.am      6 UNK        -0.4116 
     60 C         -47.4583  -25.8519   12.2890 C.2       5 UNK         0.5034 
     61 O         -47.3384  -25.7998   13.5129 O.2       5 UNK        -0.5045 
     62 CA        -46.4524  -25.0962   11.4104 C.3       5 UNK         0.0224 
     63 CB        -45.3691  -26.0410   10.8666 C.3       5 UNK        -0.1978 
     64 N         -47.1224  -24.3971   10.3106 N.am      5 UNK        -0.4737 
     65 C         -47.8840  -23.3051   10.4743 C.2       4 UNK         0.5027 
     66 O         -48.0560  -22.7534   11.5605 O.2       4 UNK        -0.5211 
     67 CA        -48.6011  -22.7539    9.2297 C.3       4 UNK         0.0297 
     68 CB        -47.6749  -21.8070    8.4510 C.3       4 UNK        -0.1993 
     69 N         -49.0890  -23.8077    8.3373 N.am      4 UNK        -0.4486 
     70 C         -50.0573  -24.6803    8.6509 C.2       3 UNK         0.4961 
     71 O         -50.6861  -24.6544    9.7074 O.2       3 UNK        -0.5105 
     72 CA        -50.3366  -25.8050    7.6388 C.3       3 UNK         0.0299 
     73 CB        -51.4021  -25.3682    6.6219 C.3       3 UNK        -0.1972 
     74 N         -49.1443  -26.2792    6.9271 N.am      3 UNK        -0.4305 
     75 C         -48.0391  -26.7710    7.5048 C.2       2 UNK         0.5006 
     76 O         -47.8782  -26.8323    8.7246 O.2       2 UNK        -0.5106 
     77 CA        -46.9526  -27.3039    6.5525 C.3       2 UNK         0.0296 
     78 CB        -45.6183  -27.5775    7.2709 C.3       2 UNK        -0.2002 
     79 N         -47.4177  -28.5378    5.9222 N.am      2 UNK        -0.4032 
     80 C         -48.2818  -28.6013    4.8988 C.2       1 UNK         0.5000 
     81 O         -48.6586  -27.6123    4.2658 O.2       1 UNK        -0.5238 
     82 H82       -46.5908  -33.0804    5.7173 H         1 UNK         0.0889 
     83 H83       -45.0913  -32.2983    5.2126 H         1 UNK         0.0889 
     84 H84       -45.9621  -33.3473    4.0905 H         1 UNK         0.0889 
     85 H85       -48.3412  -31.6810    5.7167 H         1 UNK         0.3028 
     86 H86       -49.0518  -30.0372    3.5092 H         1 UNK         0.0864 
     87 H87       -50.1581  -29.8347    6.3562 H         1 UNK         0.0720 
     88 H88       -50.9417  -29.3105    4.8863 H         1 UNK         0.0720 
     89 H89       -53.3340  -32.1963    5.8904 H         1 UNK         0.0814 
     90 H90       -53.2913  -30.7747    4.8785 H         1 UNK         0.0814 
     91 H91       -51.5664  -31.6944    8.1277 H         1 UNK         0.1469 
     92 H92       -53.0016  -28.1863   10.1361 H         1 UNK         0.1381 
     93 H93       -54.0958  -28.9082    6.0644 H         1 UNK         0.1206 
     94 H94       -54.5730  -26.7534    7.0771 H         1 UNK         0.0813 
     95 H95       -53.7764  -26.3311    8.5756 H         1 UNK         0.0813 
     96 H96       -57.3669  -25.3687    9.4242 H         1 UNK         0.0638 
     97 H97       -55.9028  -24.8798    8.6117 H         1 UNK         0.0638 
     98 H98       -54.5909  -25.2161   10.6948 H         1 UNK         0.0568 
     99 H99       -56.8308  -22.2463   12.2570 H         1 UNK         0.3450 
    100 H100      -57.1176  -23.9161   12.6781 H         1 UNK         0.3450 
    101 H101      -56.8418  -26.6659   11.6196 H         1 UNK         0.2987 
    102 H102      -56.7292  -26.7226   14.6799 H         1 UNK         0.0766 
    103 H103      -57.1333  -29.1326   14.0014 H         1 UNK         0.0798 
    104 H104      -56.2479  -28.8388   12.5094 H         1 UNK         0.0798 
    105 H105      -57.7503  -27.9793   12.8395 H         1 UNK         0.0798 
    106 H106      -55.0211  -27.5388   15.8285 H         1 UNK         0.3198 
    107 H107      -53.3553  -29.3517   16.3140 H         1 UNK         0.0843 
    108 H108      -51.1125  -29.0495   14.2428 H         1 UNK         0.0831 
    109 H109      -51.9851  -30.5301   14.6069 H         1 UNK         0.0831 
    110 H110      -50.9522  -29.8017   15.8278 H         1 UNK         0.0831 
    111 H111      -51.6044  -27.0565   15.6103 H         1 UNK         0.3133 
    112 H112      -52.7609  -24.7437   16.8933 H         1 UNK         0.0566 
    113 H113      -52.1057  -24.1401   19.2406 H         1 UNK         0.0814 
    114 H114      -53.6347  -24.9992   19.1729 H         1 UNK         0.0814 
    115 H115      -52.1859  -25.8429   19.6936 H         1 UNK         0.0814 
    116 H116      -50.6200  -24.7756   16.4601 H         1 UNK         0.3091 
    117 H117      -47.7602  -25.7477   17.9555 H         1 UNK         0.0702 
    118 H118      -46.9650  -27.1794   16.0707 H         1 UNK         0.0785 
    119 H119      -48.6306  -27.5522   15.6331 H         1 UNK         0.0785 
    120 H120      -47.9785  -28.0992   17.1711 H         1 UNK         0.0785 
    121 H121      -48.3438  -25.1537   15.1733 H         1 UNK         0.2998 
    122 H122      -48.6769  -21.6298   15.6639 H         1 UNK         0.0697 
    123 H123      -46.5076  -23.2808   14.2622 H         1 UNK         0.0825 
    124 H124      -46.2217  -22.0218   15.4549 H         1 UNK         0.0825 
    125 H125      -46.9289  -21.6082   13.9012 H         1 UNK         0.0825 
    126 H126      -48.8433  -23.1515   13.2881 H         1 UNK         0.3029 
    127 H127      -52.3123  -24.0902   13.5902 H         1 UNK         0.0897 
    128 H128      -52.3341  -23.0101   11.3666 H         1 UNK         0.0792 
    129 H129      -52.2093  -21.7912   12.6240 H         1 UNK         0.0792 
    130 H130      -50.7850  -22.2331   11.6917 H         1 UNK         0.0792 
    131 H131      -50.5070  -24.7493   11.5420 H         1 UNK         0.3086 
    132 H132      -49.2431  -27.7934   13.0462 H         1 UNK         0.0583 
    133 H133      -51.5063  -28.0501   11.8902 H         1 UNK         0.1020 
    134 H134      -50.8717  -27.1472   10.5396 H         1 UNK         0.1020 
    135 H135      -51.0816  -31.4042   10.4514 H         1 UNK         0.0694 
    136 H136      -52.0096  -30.2716   11.3961 H         1 UNK         0.0694 
    137 H137      -48.4501  -26.5161   10.6431 H         1 UNK         0.2989 
    138 H138      -45.9612  -24.3483   12.0371 H         1 UNK         0.1055 
    139 H139      -44.8044  -26.4899   11.6848 H         1 UNK         0.0806 
    140 H140      -44.6568  -25.5096   10.2355 H         1 UNK         0.0806 
    141 H141      -45.7924  -26.8585   10.2835 H         1 UNK         0.0806 
    142 H142      -47.1034  -24.8500    9.4067 H         1 UNK         0.3061 
    143 H143      -49.4643  -22.1795    9.5724 H         1 UNK         0.0734 
    144 H144      -48.1943  -21.3437    7.6119 H         1 UNK         0.0832 
    145 H145      -47.3164  -21.0004    9.0923 H         1 UNK         0.0832 
    146 H146      -46.7983  -22.3256    8.0605 H         1 UNK         0.0832 
    147 H147      -48.6301  -23.9044    7.4433 H         1 UNK         0.3156 
    148 H148      -50.7346  -26.6542    8.1977 H         1 UNK         0.0589 
    149 H149      -51.0334  -24.5822    5.9618 H         1 UNK         0.0808 
    150 H150      -51.7238  -26.2060    6.0026 H         1 UNK         0.0808 
    151 H151      -52.2886  -24.9795    7.1246 H         1 UNK         0.0808 
    152 H152      -49.1978  -26.3162    5.9153 H         1 UNK         0.3098 
    153 H153      -46.7730  -26.5478    5.7852 H         1 UNK         0.0720 
    154 H154      -44.8576  -27.9273    6.5728 H         1 UNK         0.0791 
    155 H155      -45.7242  -28.3289    8.0546 H         1 UNK         0.0791 
    156 H156      -45.2347  -26.6696    7.7379 H         1 UNK         0.0791 
    157 H157      -47.1904  -29.3987    6.3982 H         1 UNK         0.3028 
@<TRIPOS>BOND
     1    1    2 1    
     2    1   82 1    
     3    1   83 1    
     4    1   84 1    
     5    2    3 2    
     6    2    4 am   BACKBONE|DICT|INTERRES
     7    4    5 1    
     8    4   85 1    
     9    5    6 1    
    10    5   80 1    
    11    5   86 1    
    12    6    7 1    
    13    6   87 1    
    14    6   88 1    
    15    7    8 1    
    16    8    9 1    
    17    8   89 1    
    18    8   90 1    
    19    9   10 ar   
    20    9   14 ar   
    21   10   11 ar   
    22   10   91 1    
    23   11   12 ar   
    24   11   58 1    
    25   12   13 ar   
    26   12   92 1    
    27   13   14 ar   
    28   13   15 1    
    29   14   93 1    
    30   15   16 1    
    31   15   94 1    
    32   15   95 1    
    33   16   17 1    
    34   17   18 1    
    35   17   96 1    
    36   17   97 1    
    37   18   19 1    
    38   18   22 1    
    39   18   98 1    
    40   19   20 am   BACKBONE|DICT|INTERRES
    41   19   21 2    
    42   20   99 1    
    43   20  100 1    
    44   22   23 am   BACKBONE|DICT|INTERRES
    45   22  101 1    
    46   23   24 2    
    47   23   25 1    
    48   25   26 1    
    49   25   27 1    
    50   25  102 1    
    51   26  103 1    
    52   26  104 1    
    53   26  105 1    
    54   27   28 am   BACKBONE|DICT|INTERRES
    55   27  106 1    
    56   28   29 2    
    57   28   30 1    
    58   30   31 1    
    59   30   32 1    
    60   30  107 1    
    61   31  108 1    
    62   31  109 1    
    63   31  110 1    
    64   32   33 am   BACKBONE|DICT|INTERRES
    65   32  111 1    
    66   33   34 2    
    67   33   35 1    
    68   35   36 1    
    69   35   37 1    
    70   35  112 1    
    71   36  113 1    
    72   36  114 1    
    73   36  115 1    
    74   37   38 am   BACKBONE|DICT|INTERRES
    75   37  116 1    
    76   38   39 2    
    77   38   40 1    
    78   40   41 1    
    79   40   42 1    
    80   40  117 1    
    81   41  118 1    
    82   41  119 1    
    83   41  120 1    
    84   42   43 am   BACKBONE|DICT|INTERRES
    85   42  121 1    
    86   43   44 2    
    87   43   45 1    
    88   45   46 1    
    89   45   47 1    
    90   45  122 1    
    91   46  123 1    
    92   46  124 1    
    93   46  125 1    
    94   47   48 am   BACKBONE|DICT|INTERRES
    95   47  126 1    
    96   48   49 2    
    97   48   50 1    
    98   50   51 1    
    99   50   52 1    
   100   50  127 1    
   101   51  128 1    
   102   51  129 1    
   103   51  130 1    
   104   52   53 am   BACKBONE|DICT|INTERRES
   105   52  131 1    
   106   53   54 2    
   107   53   55 1    
   108   55   56 1    
   109   55   59 1    
   110   55  132 1    
   111   56   57 1    
   112   56  133 1    
   113   56  134 1    
   114   57   58 1    
   115   58  135 1    
   116   58  136 1    
   117   59   60 am   BACKBONE|DICT|INTERRES
   118   59  137 1    
   119   60   61 2    
   120   60   62 1    
   121   62   63 1    
   122   62   64 1    
   123   62  138 1    
   124   63  139 1    
   125   63  140 1    
   126   63  141 1    
   127   64   65 am   BACKBONE|DICT|INTERRES
   128   64  142 1    
   129   65   66 2    
   130   65   67 1    
   131   67   68 1    
   132   67   69 1    
   133   67  143 1    
   134   68  144 1    
   135   68  145 1    
   136   68  146 1    
   137   69   70 am   BACKBONE|DICT|INTERRES
   138   69  147 1    
   139   70   71 2    
   140   70   72 1    
   141   72   73 1    
   142   72   74 1    
   143   72  148 1    
   144   73  149 1    
   145   73  150 1    
   146   73  151 1    
   147   74   75 am   BACKBONE|DICT|INTERRES
   148   74  152 1    
   149   75   76 2    
   150   75   77 1    
   151   77   78 1    
   152   77   79 1    
   153   77  153 1    
   154   78  154 1    
   155   78  155 1    
   156   78  156 1    
   157   79   80 am   BACKBONE|DICT|INTERRES
   158   79  157 1    
   159   80   81 2    
@<TRIPOS>SUBSTRUCTURE
     1 UNK         1 GROUP             0       ****    0 ROOT    
