@<TRIPOS>MOLECULE
3R207
157   159    1
SMALL
USER_CHARGES


@<TRIPOS>ATOM
      1 CA        -53.9743  -24.1447    2.6093 C.3       0 UNK        -0.1975 
      2 C         -53.0545  -24.9161    3.5436 C.2       0 UNK         0.4852 
      3 O         -52.1266  -25.5788    3.0763 O.2       0 UNK        -0.5216 
      4 N         -53.2981  -24.8279    4.8598 N.am      1 UNK        -0.4461 
      5 CA        -52.5549  -25.4711    5.9542 C.3       1 UNK         0.0864 
      6 C6        -52.4975  -27.0181    5.8244 C.3       14 UNK        -0.0898 
      7 S7        -52.2945  -27.8544    7.4266 S.3       14 UNK        -0.2598 
      8 C8        -52.3126  -29.5928    6.8824 C.3       14 UNK         0.0286 
      9 C9        -51.9050  -30.5195    8.0163 C.ar      14 UNK        -0.0844 
     10 C10       -50.6003  -30.4647    8.5094 C.ar      14 UNK        -0.0881 
     11 C11       -50.2082  -31.2593    9.5868 C.ar      14 UNK        -0.0643 
     12 C12       -51.1248  -32.1529   10.1455 C.ar      14 UNK        -0.0930 
     13 C13       -52.4300  -32.2327    9.6501 C.ar      14 UNK        -0.0827 
     14 C14       -52.8167  -31.4156    8.5825 C.ar      14 UNK        -0.1249 
     15 C15       -53.4180  -33.1921   10.2910 C.3       14 UNK         0.0141 
     16 S16       -54.1083  -32.4908   11.8210 S.3       14 UNK        -0.2313 
     17 C17       -55.4435  -31.4212   11.1826 C.3       14 UNK        -0.0915 
     18 CA        -55.0707  -29.9142   11.0227 C.3       13 UNK         0.0968 
     19 C         -56.2732  -29.0879   10.4762 C.2       13 UNK         0.5732 
     20 N         -56.6137  -27.9301   11.0295 N.am      13 UNK        -0.7310 
     21 O         -56.8989  -29.4915    9.4985 O.2       13 UNK        -0.5035 
     22 N         -54.3882  -29.3151   12.1828 N.am      13 UNK        -0.4233 
     23 C         -54.8056  -29.3133   13.4543 C.2       13 UNK         0.4989 
     24 O         -55.8219  -29.8767   13.8625 O.2       13 UNK        -0.4996 
     25 CA        -53.9453  -28.5032   14.4396 C.3       12 UNK         0.0216 
     26 CB        -52.6593  -29.2693   14.7954 C.3       12 UNK        -0.1964 
     27 N         -53.5974  -27.1516   13.9813 N.am      12 UNK        -0.4276 
     28 C         -54.4531  -26.2212   13.5335 C.2       12 UNK         0.5020 
     29 O         -55.6494  -26.4266   13.3189 O.2       12 UNK        -0.5489 
     30 CA        -53.8636  -24.8140   13.3230 C.3       11 UNK         0.0294 
     31 CB        -54.8676  -23.8240   12.6964 C.3       11 UNK        -0.2019 
     32 N         -53.2967  -24.2603   14.5609 N.am      11 UNK        -0.4493 
     33 C         -53.9212  -24.1090   15.7412 C.2       11 UNK         0.4932 
     34 O         -55.1139  -24.3561   15.9291 O.2       11 UNK        -0.5029 
     35 CA        -53.0634  -23.5872   16.9121 C.3       10 UNK         0.0280 
     36 CB        -53.7595  -23.7390   18.2815 C.3       10 UNK        -0.1976 
     37 N         -51.7188  -24.1714   16.9608 N.am      10 UNK        -0.4242 
     38 C         -51.3721  -25.4657   17.0283 C.2       10 UNK         0.5072 
     39 O         -52.1873  -26.3884   17.0652 O.2       10 UNK        -0.5224 
     40 CA        -49.8566  -25.7794   17.0696 C.3       9 UNK         0.0343 
     41 CB        -49.5582  -27.2667   16.8035 C.3       9 UNK        -0.2003 
     42 N         -49.0681  -24.9677   16.1351 N.am      9 UNK        -0.4272 
     43 C         -48.7752  -23.6674   16.2769 C.2       9 UNK         0.4988 
     44 O         -49.0820  -23.0071   17.2700 O.2       9 UNK        -0.5108 
     45 CA        -48.0996  -22.9611   15.0913 C.3       8 UNK         0.0248 
     46 CB        -46.5707  -23.0535   15.2136 C.3       8 UNK        -0.2001 
     47 N         -48.5326  -23.4650   13.7827 N.am      8 UNK        -0.4140 
     48 C         -49.7943  -23.4372   13.3219 C.2       8 UNK         0.5028 
     49 O         -50.7484  -22.9740   13.9490 O.2       8 UNK        -0.5428 
     50 CA        -50.0470  -24.0865   11.9511 C.3       7 UNK         0.0264 
     51 CB        -49.4885  -23.2217   10.8103 C.3       7 UNK        -0.1988 
     52 N         -49.4949  -25.4399   11.8765 N.am      7 UNK        -0.4454 
     53 C         -49.8926  -26.4724   12.6365 C.2       7 UNK         0.5027 
     54 O         -50.8609  -26.4270   13.3977 O.2       7 UNK        -0.5083 
     55 CA        -49.0422  -27.7570   12.5890 C.3       6 UNK         0.0844 
     56 C56       -49.5847  -28.7849   11.5694 C.3       14 UNK        -0.0967 
     57 S57       -48.8086  -30.4189   11.8300 S.3       14 UNK        -0.2604 
     58 C58       -48.8029  -31.1350   10.1558 C.3       14 UNK         0.0134 
     59 N         -47.6232  -27.4585   12.3772 N.am      6 UNK        -0.4116 
     60 C         -46.8162  -26.9347   13.3082 C.2       5 UNK         0.5034 
     61 O         -47.1795  -26.6398   14.4467 O.2       5 UNK        -0.5045 
     62 CA        -45.3639  -26.6669   12.8811 C.3       5 UNK         0.0224 
     63 CB        -44.5536  -27.9731   12.8507 C.3       5 UNK        -0.1978 
     64 N         -45.2673  -25.9938   11.5818 N.am      5 UNK        -0.4737 
     65 C         -45.7044  -24.7484   11.3509 C.2       4 UNK         0.5027 
     66 O         -46.2358  -24.0425   12.2051 O.2       4 UNK        -0.5211 
     67 CA        -45.5543  -24.2017    9.9227 C.3       4 UNK         0.0297 
     68 CB        -44.1409  -23.6362    9.7119 C.3       4 UNK        -0.1993 
     69 N         -45.8654  -25.1570    8.8543 N.am      4 UNK        -0.4486 
     70 C         -46.9974  -25.8633    8.7356 C.2       3 UNK         0.4961 
     71 O         -47.8817  -25.9098    9.5924 O.2       3 UNK        -0.5105 
     72 CA        -47.1797  -26.6419    7.4231 C.3       3 UNK         0.0299 
     73 CB        -47.6908  -28.0620    7.7005 C.3       3 UNK        -0.1972 
     74 N         -48.1240  -25.9575    6.5371 N.am      3 UNK        -0.4305 
     75 C         -47.8992  -24.7812    5.9344 C.2       2 UNK         0.5006 
     76 O         -46.8315  -24.1720    6.0194 O.2       2 UNK        -0.5106 
     77 CA        -49.0207  -24.1784    5.0645 C.3       2 UNK         0.0296 
     78 CB        -48.5882  -24.1249    3.5889 C.3       2 UNK        -0.2002 
     79 N         -50.3175  -24.8582    5.1413 N.am      2 UNK        -0.4032 
     80 C         -51.1672  -24.8268    6.1761 C.2       1 UNK         0.5000 
     81 O         -50.9122  -24.2810    7.2500 O.2       1 UNK        -0.5238 
     82 H82       -53.3993  -23.4234    2.0291 H         1 UNK         0.0889 
     83 H83       -54.7486  -23.6035    3.1527 H         1 UNK         0.0889 
     84 H84       -54.4621  -24.8289    1.9156 H         1 UNK         0.0889 
     85 H85       -54.0620  -24.2402    5.1656 H         1 UNK         0.3028 
     86 H86       -53.1417  -25.2411    6.8456 H         1 UNK         0.0864 
     87 H87       -51.7060  -27.3370    5.1440 H         1 UNK         0.0720 
     88 H88       -53.4296  -27.3855    5.3917 H         1 UNK         0.0720 
     89 H89       -51.6225  -29.7250    6.0476 H         1 UNK         0.0814 
     90 H90       -53.3070  -29.8443    6.5101 H         1 UNK         0.0814 
     91 H91       -49.8994  -29.7807    8.0603 H         1 UNK         0.1469 
     92 H92       -50.8280  -32.7684   10.9839 H         1 UNK         0.1381 
     93 H93       -53.8298  -31.4650    8.2069 H         1 UNK         0.1206 
     94 H94       -52.9094  -34.1264   10.5334 H         1 UNK         0.0813 
     95 H95       -54.2173  -33.4562    9.5971 H         1 UNK         0.0813 
     96 H96       -56.2929  -31.5270   11.8589 H         1 UNK         0.0638 
     97 H97       -55.7839  -31.8263   10.2284 H         1 UNK         0.0638 
     98 H98       -54.3297  -29.8534   10.2274 H         1 UNK         0.0568 
     99 H99       -56.1457  -27.5697   11.8562 H         1 UNK         0.3450 
    100 H100      -57.3890  -27.4186   10.6407 H         1 UNK         0.3450 
    101 H101      -53.5521  -28.7954   11.9642 H         1 UNK         0.2987 
    102 H102      -54.5290  -28.3817   15.3543 H         1 UNK         0.0766 
    103 H103      -52.1192  -28.7775   15.6044 H         1 UNK         0.0798 
    104 H104      -51.9837  -29.3497   13.9430 H         1 UNK         0.0798 
    105 H105      -52.8864  -30.2828   15.1292 H         1 UNK         0.0798 
    106 H106      -52.6218  -26.8786   14.0774 H         1 UNK         0.3198 
    107 H107      -53.0411  -24.9341   12.6204 H         1 UNK         0.0843 
    108 H108      -55.7329  -23.6614   13.3398 H         1 UNK         0.0831 
    109 H109      -55.2392  -24.1988   11.7419 H         1 UNK         0.0831 
    110 H110      -54.4034  -22.8563   12.5070 H         1 UNK         0.0831 
    111 H111      -52.3199  -23.9790   14.5045 H         1 UNK         0.3133 
    112 H112      -52.9225  -22.5209   16.7300 H         1 UNK         0.0566 
    113 H113      -53.1459  -23.3341   19.0862 H         1 UNK         0.0814 
    114 H114      -54.7097  -23.2039   18.3008 H         1 UNK         0.0814 
    115 H115      -53.9691  -24.7841   18.5125 H         1 UNK         0.0814 
    116 H116      -50.9523  -23.5052   16.9560 H         1 UNK         0.3091 
    117 H117      -49.5189  -25.5519   18.0826 H         1 UNK         0.0702 
    118 H118      -48.4903  -27.4760   16.8688 H         1 UNK         0.0785 
    119 H119      -49.8987  -27.5701   15.8135 H         1 UNK         0.0785 
    120 H120      -50.0574  -27.9065   17.5323 H         1 UNK         0.0785 
    121 H121      -48.7366  -25.4407   15.3022 H         1 UNK         0.2998 
    122 H122      -48.3799  -21.9070   15.1391 H         1 UNK         0.0697 
    123 H123      -46.2202  -24.0817   15.1168 H         1 UNK         0.0825 
    124 H124      -46.2309  -22.6810   16.1809 H         1 UNK         0.0825 
    125 H125      -46.0755  -22.4578   14.4467 H         1 UNK         0.0825 
    126 H126      -47.7971  -23.8326   13.1813 H         1 UNK         0.3029 
    127 H127      -51.1243  -24.1581   11.8057 H         1 UNK         0.0897 
    128 H128      -49.7091  -23.6609    9.8366 H         1 UNK         0.0792 
    129 H129      -48.4088  -23.0990   10.8828 H         1 UNK         0.0792 
    130 H130      -49.9317  -22.2253   10.8246 H         1 UNK         0.0792 
    131 H131      -48.7436  -25.5874   11.2047 H         1 UNK         0.3086 
    132 H132      -49.1341  -28.2091   13.5792 H         1 UNK         0.0583 
    133 H133      -50.6641  -28.9111   11.6755 H         1 UNK         0.1020 
    134 H134      -49.4140  -28.4424   10.5473 H         1 UNK         0.1020 
    135 H135      -48.1687  -30.5277    9.5088 H         1 UNK         0.0694 
    136 H136      -48.3435  -32.1235   10.1956 H         1 UNK         0.0694 
    137 H137      -47.2564  -27.6262   11.4524 H         1 UNK         0.2989 
    138 H138      -44.9210  -26.0091   13.6327 H         1 UNK         0.1055 
    139 H139      -44.6033  -28.4842   13.8134 H         1 UNK         0.0806 
    140 H140      -43.5008  -27.7816   12.6425 H         1 UNK         0.0806 
    141 H141      -44.9249  -28.6665   12.0950 H         1 UNK         0.0806 
    142 H142      -44.8480  -26.5063   10.8193 H         1 UNK         0.3061 
    143 H143      -46.2615  -23.3768    9.8192 H         1 UNK         0.0734 
    144 H144      -44.0557  -23.1259    8.7523 H         1 UNK         0.0832 
    145 H145      -43.8927  -22.9079   10.4856 H         1 UNK         0.0832 
    146 H146      -43.3820  -24.4188    9.7461 H         1 UNK         0.0832 
    147 H147      -45.2246  -25.1707    8.0732 H         1 UNK         0.3156 
    148 H148      -46.2179  -26.7200    6.9118 H         1 UNK         0.0589 
    149 H149      -47.8180  -28.6317    6.7798 H         1 UNK         0.0808 
    150 H150      -46.9925  -28.6120    8.3324 H         1 UNK         0.0808 
    151 H151      -48.6484  -28.0307    8.2185 H         1 UNK         0.0808 
    152 H152      -49.0395  -26.3704    6.4427 H         1 UNK         0.3098 
    153 H153      -49.1659  -23.1530    5.4105 H         1 UNK         0.0720 
    154 H154      -49.3335  -23.6189    2.9747 H         1 UNK         0.0791 
    155 H155      -48.4373  -25.1240    3.1780 H         1 UNK         0.0791 
    156 H156      -47.6512  -23.5785    3.4716 H         1 UNK         0.0791 
    157 H157      -50.6644  -25.2826    4.2844 H         1 UNK         0.3028 
@<TRIPOS>BOND
     1    1    2 1    
     2    1   82 1    
     3    1   83 1    
     4    1   84 1    
     5    2    3 2    
     6    2    4 am   BACKBONE|DICT|INTERRES
     7    4    5 1    
     8    4   85 1    
     9    5    6 1    
    10    5   80 1    
    11    5   86 1    
    12    6    7 1    
    13    6   87 1    
    14    6   88 1    
    15    7    8 1    
    16    8    9 1    
    17    8   89 1    
    18    8   90 1    
    19    9   10 ar   
    20    9   14 ar   
    21   10   11 ar   
    22   10   91 1    
    23   11   12 ar   
    24   11   58 1    
    25   12   13 ar   
    26   12   92 1    
    27   13   14 ar   
    28   13   15 1    
    29   14   93 1    
    30   15   16 1    
    31   15   94 1    
    32   15   95 1    
    33   16   17 1    
    34   17   18 1    
    35   17   96 1    
    36   17   97 1    
    37   18   19 1    
    38   18   22 1    
    39   18   98 1    
    40   19   20 am   BACKBONE|DICT|INTERRES
    41   19   21 2    
    42   20   99 1    
    43   20  100 1    
    44   22   23 am   BACKBONE|DICT|INTERRES
    45   22  101 1    
    46   23   24 2    
    47   23   25 1    
    48   25   26 1    
    49   25   27 1    
    50   25  102 1    
    51   26  103 1    
    52   26  104 1    
    53   26  105 1    
    54   27   28 am   BACKBONE|DICT|INTERRES
    55   27  106 1    
    56   28   29 2    
    57   28   30 1    
    58   30   31 1    
    59   30   32 1    
    60   30  107 1    
    61   31  108 1    
    62   31  109 1    
    63   31  110 1    
    64   32   33 am   BACKBONE|DICT|INTERRES
    65   32  111 1    
    66   33   34 2    
    67   33   35 1    
    68   35   36 1    
    69   35   37 1    
    70   35  112 1    
    71   36  113 1    
    72   36  114 1    
    73   36  115 1    
    74   37   38 am   BACKBONE|DICT|INTERRES
    75   37  116 1    
    76   38   39 2    
    77   38   40 1    
    78   40   41 1    
    79   40   42 1    
    80   40  117 1    
    81   41  118 1    
    82   41  119 1    
    83   41  120 1    
    84   42   43 am   BACKBONE|DICT|INTERRES
    85   42  121 1    
    86   43   44 2    
    87   43   45 1    
    88   45   46 1    
    89   45   47 1    
    90   45  122 1    
    91   46  123 1    
    92   46  124 1    
    93   46  125 1    
    94   47   48 am   BACKBONE|DICT|INTERRES
    95   47  126 1    
    96   48   49 2    
    97   48   50 1    
    98   50   51 1    
    99   50   52 1    
   100   50  127 1    
   101   51  128 1    
   102   51  129 1    
   103   51  130 1    
   104   52   53 am   BACKBONE|DICT|INTERRES
   105   52  131 1    
   106   53   54 2    
   107   53   55 1    
   108   55   56 1    
   109   55   59 1    
   110   55  132 1    
   111   56   57 1    
   112   56  133 1    
   113   56  134 1    
   114   57   58 1    
   115   58  135 1    
   116   58  136 1    
   117   59   60 am   BACKBONE|DICT|INTERRES
   118   59  137 1    
   119   60   61 2    
   120   60   62 1    
   121   62   63 1    
   122   62   64 1    
   123   62  138 1    
   124   63  139 1    
   125   63  140 1    
   126   63  141 1    
   127   64   65 am   BACKBONE|DICT|INTERRES
   128   64  142 1    
   129   65   66 2    
   130   65   67 1    
   131   67   68 1    
   132   67   69 1    
   133   67  143 1    
   134   68  144 1    
   135   68  145 1    
   136   68  146 1    
   137   69   70 am   BACKBONE|DICT|INTERRES
   138   69  147 1    
   139   70   71 2    
   140   70   72 1    
   141   72   73 1    
   142   72   74 1    
   143   72  148 1    
   144   73  149 1    
   145   73  150 1    
   146   73  151 1    
   147   74   75 am   BACKBONE|DICT|INTERRES
   148   74  152 1    
   149   75   76 2    
   150   75   77 1    
   151   77   78 1    
   152   77   79 1    
   153   77  153 1    
   154   78  154 1    
   155   78  155 1    
   156   78  156 1    
   157   79   80 am   BACKBONE|DICT|INTERRES
   158   79  157 1    
   159   80   81 2    
@<TRIPOS>SUBSTRUCTURE
     1 UNK         1 GROUP             0       ****    0 ROOT    
