@<TRIPOS>MOLECULE
3R207
157   159    1
SMALL
USER_CHARGES


@<TRIPOS>ATOM
      1 CA        -53.9173  -26.5546    3.0301 C.3       0 UNK        -0.1975 
      2 C         -52.5731  -27.2666    2.8992 C.2       0 UNK         0.4852 
      3 O         -51.8965  -27.0963    1.8868 O.2       0 UNK        -0.5216 
      4 N         -52.1403  -28.0702    3.8822 N.am      1 UNK        -0.4461 
      5 CA        -52.8025  -28.3478    5.1649 C.3       1 UNK         0.0864 
      6 C6        -52.2925  -29.6680    5.7889 C.3       14 UNK        -0.0898 
      7 S7        -50.4940  -29.7006    6.1337 S.3       14 UNK        -0.2598 
      8 C8        -50.3017  -31.3337    6.9202 C.3       14 UNK         0.0286 
      9 C9        -50.8840  -31.3541    8.3264 C.ar      14 UNK        -0.0844 
     10 C10       -50.0826  -31.0667    9.4325 C.ar      14 UNK        -0.0881 
     11 C11       -50.6218  -31.0682   10.7251 C.ar      14 UNK        -0.0643 
     12 C12       -51.9857  -31.3421   10.8945 C.ar      14 UNK        -0.0930 
     13 C13       -52.8055  -31.6237    9.7944 C.ar      14 UNK        -0.0827 
     14 C14       -52.2294  -31.6667    8.5202 C.ar      14 UNK        -0.1249 
     15 C15       -54.2944  -31.9131   10.0063 C.3       14 UNK         0.0141 
     16 S16       -55.3500  -31.4983    8.5659 S.3       14 UNK        -0.2313 
     17 C17       -56.4865  -30.2218    9.2012 C.3       14 UNK        -0.0915 
     18 CA        -56.0428  -28.7681    8.8456 C.3       13 UNK         0.0968 
     19 C         -57.1906  -27.7240    9.0123 C.2       13 UNK         0.5732 
     20 N         -56.9054  -26.4787    9.3748 N.am      13 UNK        -0.7310 
     21 O         -58.3570  -28.0303    8.7750 O.2       13 UNK        -0.5035 
     22 N         -54.7702  -28.3724    9.4779 N.am      13 UNK        -0.4233 
     23 C         -54.5495  -28.2959   10.7974 C.2       13 UNK         0.4989 
     24 O         -55.3965  -28.5831   11.6471 O.2       13 UNK        -0.4996 
     25 CA        -53.1348  -27.8701   11.2369 C.3       12 UNK         0.0216 
     26 CB        -52.6740  -26.5430   10.5947 C.3       12 UNK        -0.1964 
     27 N         -53.0000  -27.8419   12.7016 N.am      12 UNK        -0.4276 
     28 C         -53.5223  -26.9594   13.5670 C.2       12 UNK         0.5020 
     29 O         -54.1416  -25.9456   13.2365 O.2       12 UNK        -0.5489 
     30 CA        -53.3218  -27.2523   15.0654 C.3       11 UNK         0.0294 
     31 CB        -52.4302  -28.4776   15.3654 C.3       11 UNK        -0.2019 
     32 N         -52.7169  -26.0751   15.6771 N.am      11 UNK        -0.4493 
     33 C         -53.2983  -25.2590   16.5631 C.2       11 UNK         0.4932 
     34 O         -54.4170  -25.4522   17.0438 O.2       11 UNK        -0.5029 
     35 CA        -52.4923  -24.0079   16.9670 C.3       10 UNK         0.0280 
     36 CB        -52.9936  -23.3527   18.2722 C.3       10 UNK        -0.1976 
     37 N         -51.0439  -24.2452   17.0092 N.am      10 UNK        -0.4242 
     38 C         -50.3730  -25.0670   17.8338 C.2       10 UNK         0.5072 
     39 O         -50.9081  -25.7136   18.7357 O.2       10 UNK        -0.5224 
     40 CA        -48.8505  -25.2196   17.6268 C.3       9 UNK         0.0343 
     41 CB        -48.4892  -26.6826   17.3153 C.3       9 UNK        -0.2003 
     42 N         -48.3039  -24.3634   16.5707 N.am      9 UNK        -0.4272 
     43 C         -48.0689  -23.0492   16.6875 C.2       9 UNK         0.4988 
     44 O         -48.2114  -22.4190   17.7355 O.2       9 UNK        -0.5108 
     45 CA        -47.6449  -22.3014   15.4099 C.3       8 UNK         0.0248 
     46 CB        -46.1166  -22.3303   15.2518 C.3       8 UNK        -0.2001 
     47 N         -48.2812  -22.8180   14.1912 N.am      8 UNK        -0.4140 
     48 C         -49.6039  -22.8177   13.9618 C.2       8 UNK         0.5028 
     49 O         -50.4305  -22.3452   14.7419 O.2       8 UNK        -0.5428 
     50 CA        -50.0991  -23.5215   12.6866 C.3       7 UNK         0.0264 
     51 CB        -49.8908  -22.6397   11.4455 C.3       7 UNK        -0.1988 
     52 N         -49.4612  -24.8225   12.4816 N.am      7 UNK        -0.4454 
     53 C         -49.5661  -25.8643   13.3186 C.2       7 UNK         0.5027 
     54 O         -50.2646  -25.8562   14.3312 O.2       7 UNK        -0.5083 
     55 CA        -48.7097  -27.1043   13.0052 C.3       6 UNK         0.0844 
     56 C56       -49.3922  -28.0182   11.9613 C.3       14 UNK        -0.0967 
     57 S57       -48.4522  -29.5596   11.7092 S.3       14 UNK        -0.2604 
     58 C58       -49.7317  -30.8414   11.9467 C.3       14 UNK         0.0134 
     59 N         -47.3575  -26.7160   12.6030 N.am      6 UNK        -0.4116 
     60 C         -46.4400  -26.1788   13.4162 C.2       5 UNK         0.5034 
     61 O         -46.6216  -25.9638   14.6141 O.2       5 UNK        -0.5045 
     62 CA        -45.1054  -25.7798   12.7664 C.3       5 UNK         0.0224 
     63 CB        -44.1699  -26.9944   12.6583 C.3       5 UNK        -0.1978 
     64 N         -45.2817  -25.1733   11.4428 N.am      5 UNK        -0.4737 
     65 C         -45.8867  -23.9959   11.2351 C.2       4 UNK         0.5027 
     66 O         -46.3396  -23.2914   12.1359 O.2       4 UNK        -0.5211 
     67 CA        -46.0518  -23.5470    9.7753 C.3       4 UNK         0.0297 
     68 CB        -44.7558  -22.9006    9.2606 C.3       4 UNK        -0.1993 
     69 N         -46.4745  -24.6101    8.8557 N.am      4 UNK        -0.4486 
     70 C         -47.5898  -25.3417    8.9834 C.2       3 UNK         0.4961 
     71 O         -48.3254  -25.3182    9.9716 O.2       3 UNK        -0.5105 
     72 CA        -47.9503  -26.2630    7.8076 C.3       3 UNK         0.0299 
     73 CB        -47.6321  -27.7280    8.1483 C.3       3 UNK        -0.1972 
     74 N         -49.3687  -26.1434    7.4612 N.am      3 UNK        -0.4305 
     75 C         -49.9572  -25.0263    7.0071 C.2       2 UNK         0.5006 
     76 O         -49.3464  -23.9915    6.7329 O.2       2 UNK        -0.5106 
     77 CA        -51.4751  -25.1048    6.7888 C.3       2 UNK         0.0296 
     78 CB        -52.0685  -23.8341    6.1503 C.3       2 UNK        -0.2002 
     79 N         -51.7700  -26.2562    5.9418 N.am      2 UNK        -0.4032 
     80 C         -52.7008  -27.1876    6.1796 C.2       1 UNK         0.5000 
     81 O         -53.4563  -27.1731    7.1530 O.2       1 UNK        -0.5238 
     82 H82       -54.1400  -25.9944    2.1221 H         1 UNK         0.0889 
     83 H83       -53.9093  -25.8472    3.8584 H         1 UNK         0.0889 
     84 H84       -54.7266  -27.2681    3.1803 H         1 UNK         0.0889 
     85 H85       -51.2539  -28.5409    3.7606 H         1 UNK         0.3028 
     86 H86       -53.8675  -28.4870    4.9716 H         1 UNK         0.0864 
     87 H87       -52.8415  -29.8556    6.7110 H         1 UNK         0.0720 
     88 H88       -52.5289  -30.5027    5.1272 H         1 UNK         0.0720 
     89 H89       -49.2404  -31.5843    6.9541 H         1 UNK         0.0814 
     90 H90       -50.7737  -32.0978    6.3006 H         1 UNK         0.0814 
     91 H91       -49.0330  -30.8540    9.2843 H         1 UNK         0.1469 
     92 H92       -52.4103  -31.3487   11.8891 H         1 UNK         0.1381 
     93 H93       -52.8309  -31.9244    7.6607 H         1 UNK         0.1206 
     94 H94       -54.6532  -31.3827   10.8890 H         1 UNK         0.0813 
     95 H95       -54.4099  -32.9760   10.2211 H         1 UNK         0.0813 
     96 H96       -57.4525  -30.4418    8.7440 H         1 UNK         0.0638 
     97 H97       -56.6417  -30.3506   10.2722 H         1 UNK         0.0638 
     98 H98       -55.8374  -28.7540    7.7748 H         1 UNK         0.0568 
     99 H99       -57.6521  -25.8088    9.4680 H         1 UNK         0.3450 
    100 H100      -55.9533  -26.2057    9.5550 H         1 UNK         0.3450 
    101 H101      -54.0535  -28.0689    8.8258 H         1 UNK         0.2987 
    102 H102      -52.4564  -28.6477   10.8880 H         1 UNK         0.0766 
    103 H103      -51.7458  -26.1825   11.0369 H         1 UNK         0.0798 
    104 H104      -53.4202  -25.7553   10.7020 H         1 UNK         0.0798 
    105 H105      -52.4867  -26.6730    9.5308 H         1 UNK         0.0798 
    106 H106      -52.5698  -28.6596   13.1068 H         1 UNK         0.3198 
    107 H107      -54.3121  -27.4394   15.4856 H         1 UNK         0.0843 
    108 H108      -52.3205  -28.6185   16.4411 H         1 UNK         0.0831 
    109 H109      -51.4267  -28.3690   14.9512 H         1 UNK         0.0831 
    110 H110      -52.8664  -29.3970   14.9728 H         1 UNK         0.0831 
    111 H111      -51.8047  -25.8201   15.2998 H         1 UNK         0.3133 
    112 H112      -52.6482  -23.2862   16.1641 H         1 UNK         0.0566 
    113 H113      -52.4075  -22.4684   18.5224 H         1 UNK         0.0814 
    114 H114      -54.0322  -23.0346   18.1747 H         1 UNK         0.0814 
    115 H115      -52.9443  -24.0395   19.1175 H         1 UNK         0.0814 
    116 H116      -50.5185  -23.7608   16.2892 H         1 UNK         0.3091 
    117 H117      -48.3714  -24.9486   18.5698 H         1 UNK         0.0702 
    118 H118      -47.4118  -26.8118   17.2102 H         1 UNK         0.0785 
    119 H119      -48.9590  -27.0262   16.3937 H         1 UNK         0.0785 
    120 H120      -48.8172  -27.3479   18.1150 H         1 UNK         0.0785 
    121 H121      -48.0991  -24.8154   15.6867 H         1 UNK         0.2998 
    122 H122      -47.9546  -21.2605   15.5228 H         1 UNK         0.0697 
    123 H123      -45.7944  -21.7254   14.4040 H         1 UNK         0.0825 
    124 H124      -45.6232  -21.9325   16.1396 H         1 UNK         0.0825 
    125 H125      -45.7464  -23.3444   15.0984 H         1 UNK         0.0825 
    126 H126      -47.6575  -23.1758   13.4699 H         1 UNK         0.3029 
    127 H127      -51.1711  -23.6979   12.8019 H         1 UNK         0.0897 
    128 H128      -50.2954  -23.1138   10.5508 H         1 UNK         0.0792 
    129 H129      -50.3936  -21.6787   11.5610 H         1 UNK         0.0792 
    130 H130      -48.8349  -22.4372   11.2656 H         1 UNK         0.0792 
    131 H131      -48.9056  -24.9325   11.6334 H         1 UNK         0.3086 
    132 H132      -48.6233  -27.6717   13.9346 H         1 UNK         0.0583 
    133 H133      -50.3979  -28.2713   12.2896 H         1 UNK         0.1020 
    134 H134      -49.5038  -27.5115   11.0014 H         1 UNK         0.1020 
    135 H135      -49.2293  -31.7827   12.1725 H         1 UNK         0.0694 
    136 H136      -50.3278  -30.5973   12.8273 H         1 UNK         0.0694 
    137 H137      -47.1368  -26.8160   11.6236 H         1 UNK         0.2989 
    138 H138      -44.6334  -25.0397   13.4169 H         1 UNK         0.1055 
    139 H139      -44.0111  -27.4511   13.6364 H         1 UNK         0.0806 
    140 H140      -43.1906  -26.7080   12.2743 H         1 UNK         0.0806 
    141 H141      -44.5769  -27.7647   12.0018 H         1 UNK         0.0806 
    142 H142      -44.9410  -25.6884   10.6438 H         1 UNK         0.3061 
    143 H143      -46.8344  -22.7857    9.7611 H         1 UNK         0.0734 
    144 H144      -44.8946  -22.4638    8.2715 H         1 UNK         0.0832 
    145 H145      -44.4315  -22.0967    9.9233 H         1 UNK         0.0832 
    146 H146      -43.9391  -23.6208    9.1993 H         1 UNK         0.0832 
    147 H147      -45.9311  -24.7116    8.0103 H         1 UNK         0.3156 
    148 H148      -47.3642  -25.9738    6.9329 H         1 UNK         0.0589 
    149 H149      -48.2345  -28.0907    8.9813 H         1 UNK         0.0808 
    150 H150      -47.8169  -28.3820    7.2959 H         1 UNK         0.0808 
    151 H151      -46.5843  -27.8489    8.4263 H         1 UNK         0.0808 
    152 H152      -49.9474  -26.9478    7.6536 H         1 UNK         0.3098 
    153 H153      -51.9254  -25.2285    7.7748 H         1 UNK         0.0720 
    154 H154      -51.8725  -22.9573    6.7688 H         1 UNK         0.0791 
    155 H155      -53.1498  -23.9166    6.0399 H         1 UNK         0.0791 
    156 H156      -51.6447  -23.6424    5.1638 H         1 UNK         0.0791 
    157 H157      -51.1675  -26.3823    5.1397 H         1 UNK         0.3028 
@<TRIPOS>BOND
     1    1    2 1    
     2    1   82 1    
     3    1   83 1    
     4    1   84 1    
     5    2    3 2    
     6    2    4 am   BACKBONE|DICT|INTERRES
     7    4    5 1    
     8    4   85 1    
     9    5    6 1    
    10    5   80 1    
    11    5   86 1    
    12    6    7 1    
    13    6   87 1    
    14    6   88 1    
    15    7    8 1    
    16    8    9 1    
    17    8   89 1    
    18    8   90 1    
    19    9   10 ar   
    20    9   14 ar   
    21   10   11 ar   
    22   10   91 1    
    23   11   12 ar   
    24   11   58 1    
    25   12   13 ar   
    26   12   92 1    
    27   13   14 ar   
    28   13   15 1    
    29   14   93 1    
    30   15   16 1    
    31   15   94 1    
    32   15   95 1    
    33   16   17 1    
    34   17   18 1    
    35   17   96 1    
    36   17   97 1    
    37   18   19 1    
    38   18   22 1    
    39   18   98 1    
    40   19   20 am   BACKBONE|DICT|INTERRES
    41   19   21 2    
    42   20   99 1    
    43   20  100 1    
    44   22   23 am   BACKBONE|DICT|INTERRES
    45   22  101 1    
    46   23   24 2    
    47   23   25 1    
    48   25   26 1    
    49   25   27 1    
    50   25  102 1    
    51   26  103 1    
    52   26  104 1    
    53   26  105 1    
    54   27   28 am   BACKBONE|DICT|INTERRES
    55   27  106 1    
    56   28   29 2    
    57   28   30 1    
    58   30   31 1    
    59   30   32 1    
    60   30  107 1    
    61   31  108 1    
    62   31  109 1    
    63   31  110 1    
    64   32   33 am   BACKBONE|DICT|INTERRES
    65   32  111 1    
    66   33   34 2    
    67   33   35 1    
    68   35   36 1    
    69   35   37 1    
    70   35  112 1    
    71   36  113 1    
    72   36  114 1    
    73   36  115 1    
    74   37   38 am   BACKBONE|DICT|INTERRES
    75   37  116 1    
    76   38   39 2    
    77   38   40 1    
    78   40   41 1    
    79   40   42 1    
    80   40  117 1    
    81   41  118 1    
    82   41  119 1    
    83   41  120 1    
    84   42   43 am   BACKBONE|DICT|INTERRES
    85   42  121 1    
    86   43   44 2    
    87   43   45 1    
    88   45   46 1    
    89   45   47 1    
    90   45  122 1    
    91   46  123 1    
    92   46  124 1    
    93   46  125 1    
    94   47   48 am   BACKBONE|DICT|INTERRES
    95   47  126 1    
    96   48   49 2    
    97   48   50 1    
    98   50   51 1    
    99   50   52 1    
   100   50  127 1    
   101   51  128 1    
   102   51  129 1    
   103   51  130 1    
   104   52   53 am   BACKBONE|DICT|INTERRES
   105   52  131 1    
   106   53   54 2    
   107   53   55 1    
   108   55   56 1    
   109   55   59 1    
   110   55  132 1    
   111   56   57 1    
   112   56  133 1    
   113   56  134 1    
   114   57   58 1    
   115   58  135 1    
   116   58  136 1    
   117   59   60 am   BACKBONE|DICT|INTERRES
   118   59  137 1    
   119   60   61 2    
   120   60   62 1    
   121   62   63 1    
   122   62   64 1    
   123   62  138 1    
   124   63  139 1    
   125   63  140 1    
   126   63  141 1    
   127   64   65 am   BACKBONE|DICT|INTERRES
   128   64  142 1    
   129   65   66 2    
   130   65   67 1    
   131   67   68 1    
   132   67   69 1    
   133   67  143 1    
   134   68  144 1    
   135   68  145 1    
   136   68  146 1    
   137   69   70 am   BACKBONE|DICT|INTERRES
   138   69  147 1    
   139   70   71 2    
   140   70   72 1    
   141   72   73 1    
   142   72   74 1    
   143   72  148 1    
   144   73  149 1    
   145   73  150 1    
   146   73  151 1    
   147   74   75 am   BACKBONE|DICT|INTERRES
   148   74  152 1    
   149   75   76 2    
   150   75   77 1    
   151   77   78 1    
   152   77   79 1    
   153   77  153 1    
   154   78  154 1    
   155   78  155 1    
   156   78  156 1    
   157   79   80 am   BACKBONE|DICT|INTERRES
   158   79  157 1    
   159   80   81 2    
@<TRIPOS>SUBSTRUCTURE
     1 UNK         1 GROUP             0       ****    0 ROOT    
