@<TRIPOS>MOLECULE
3R207
157   159    1
SMALL
USER_CHARGES


@<TRIPOS>ATOM
      1 CA        -44.5143  -31.0304    5.6665 C.3       0 UNK        -0.1975 
      2 C         -45.4698  -30.3097    4.7271 C.2       0 UNK         0.4852 
      3 O         -45.1390  -30.1012    3.5592 O.2       0 UNK        -0.5216 
      4 N         -46.6520  -29.9281    5.2288 N.am      1 UNK        -0.4461 
      5 CA        -47.7045  -29.2329    4.4746 C.3       1 UNK         0.0864 
      6 C6        -49.0372  -29.1866    5.2587 C.3       14 UNK        -0.0898 
      7 S7        -49.6662  -30.8138    5.7839 S.3       14 UNK        -0.2598 
      8 C8        -51.4491  -30.4574    5.9228 C.3       14 UNK         0.0286 
      9 C9        -51.7597  -29.4964    7.0648 C.ar      14 UNK        -0.0844 
     10 C10       -51.7186  -28.1125    6.8573 C.ar      14 UNK        -0.0881 
     11 C11       -52.0108  -27.2184    7.8917 C.ar      14 UNK        -0.0643 
     12 C12       -52.3690  -27.7351    9.1430 C.ar      14 UNK        -0.0930 
     13 C13       -52.4343  -29.1121    9.3620 C.ar      14 UNK        -0.0827 
     14 C14       -52.1165  -29.9907    8.3231 C.ar      14 UNK        -0.1249 
     15 C15       -52.8823  -29.6353   10.7168 C.3       14 UNK         0.0141 
     16 S16       -54.6962  -29.7592   10.7706 S.3       14 UNK        -0.2313 
     17 C17       -55.0133  -30.0707   12.5397 C.3       14 UNK        -0.0915 
     18 CA        -55.8158  -28.9210   13.2254 C.3       13 UNK         0.0968 
     19 C         -57.3567  -28.9816   12.9663 C.2       13 UNK         0.5732 
     20 N         -58.2110  -28.6302   13.9227 N.am      13 UNK        -0.7310 
     21 O         -57.7975  -29.3252   11.8725 O.2       13 UNK        -0.5035 
     22 N         -55.4617  -28.7506   14.6429 N.am      13 UNK        -0.4233 
     23 C         -55.6020  -29.6786   15.6019 C.2       13 UNK         0.4989 
     24 O         -55.9170  -30.8497   15.3892 O.2       13 UNK        -0.4996 
     25 CA        -55.3865  -29.2240   17.0567 C.3       12 UNK         0.0216 
     26 CB        -54.0135  -29.6874   17.5702 C.3       12 UNK        -0.1964 
     27 N         -55.5392  -27.7750   17.2484 N.am      12 UNK        -0.4276 
     28 C         -56.7093  -27.1250   17.1265 C.2       12 UNK         0.5020 
     29 O         -57.7650  -27.6879   16.8324 O.2       12 UNK        -0.5489 
     30 CA        -56.7210  -25.5980   17.3305 C.3       11 UNK         0.0294 
     31 CB        -57.1708  -25.2535   18.7593 C.3       11 UNK        -0.2019 
     32 N         -55.4403  -24.9423   17.0577 N.am      11 UNK        -0.4493 
     33 C         -54.8287  -24.9063   15.8665 C.2       11 UNK         0.4932 
     34 O         -55.2903  -25.4210   14.8459 O.2       11 UNK        -0.5029 
     35 CA        -53.4388  -24.2402   15.8087 C.3       10 UNK         0.0280 
     36 CB        -53.0312  -23.4853   17.0947 C.3       10 UNK        -0.1976 
     37 N         -52.4088  -25.2167   15.4436 N.am      10 UNK        -0.4242 
     38 C         -52.1709  -26.3881   16.0546 C.2       10 UNK         0.5072 
     39 O         -52.7457  -26.7577   17.0804 O.2       10 UNK        -0.5224 
     40 CA        -51.1429  -27.3201   15.3987 C.3       9 UNK         0.0343 
     41 CB        -51.7753  -28.0651   14.2124 C.3       9 UNK        -0.2003 
     42 N         -49.9320  -26.6222   14.9629 N.am      9 UNK        -0.4272 
     43 C         -48.9994  -26.1567   15.8077 C.2       9 UNK         0.4988 
     44 O         -49.0770  -26.2472   17.0337 O.2       9 UNK        -0.5108 
     45 CA        -47.7543  -25.5040   15.1882 C.3       8 UNK         0.0248 
     46 CB        -46.8075  -26.5760   14.6240 C.3       8 UNK        -0.2001 
     47 N         -48.0790  -24.5280   14.1478 N.am      8 UNK        -0.4140 
     48 C         -48.6556  -23.3390   14.3754 C.2       8 UNK         0.5028 
     49 O         -48.9435  -22.9179   15.4965 O.2       8 UNK        -0.5428 
     50 CA        -48.9775  -22.4713   13.1444 C.3       7 UNK         0.0264 
     51 CB        -47.7305  -21.7055   12.6761 C.3       7 UNK        -0.1988 
     52 N         -49.5392  -23.2352   12.0265 N.am      7 UNK        -0.4454 
     53 C         -50.6986  -23.9078   12.0827 C.2       7 UNK         0.5027 
     54 O         -51.4243  -23.9423   13.0764 O.2       7 UNK        -0.5083 
     55 CA        -51.1043  -24.7174   10.8387 C.3       6 UNK         0.0844 
     56 C56       -51.7458  -23.8130    9.7528 C.3       14 UNK        -0.0967 
     57 S57       -52.9626  -24.6776    8.7027 S.3       14 UNK        -0.2604 
     58 C58       -51.9222  -25.7145    7.6153 C.3       14 UNK         0.0134 
     59 N         -49.9672  -25.4841   10.3250 N.am      6 UNK        -0.4116 
     60 C         -49.3594  -26.4896   10.9697 C.2       5 UNK         0.5034 
     61 O         -49.7165  -26.9266   12.0629 O.2       5 UNK        -0.5045 
     62 CA        -48.0987  -27.0598   10.3025 C.3       5 UNK         0.0224 
     63 CB        -48.4760  -28.0439    9.1831 C.3       5 UNK        -0.1978 
     64 N         -47.2305  -26.0024    9.7718 N.am      5 UNK        -0.4737 
     65 C         -46.5855  -25.1103   10.5421 C.2       4 UNK         0.5027 
     66 O         -46.6211  -25.1274   11.7702 O.2       4 UNK        -0.5211 
     67 CA        -45.8051  -23.9806    9.8450 C.3       4 UNK         0.0297 
     68 CB        -44.3433  -24.4002    9.6266 C.3       4 UNK        -0.1993 
     69 N         -46.3851  -23.5645    8.5687 N.am      4 UNK        -0.4486 
     70 C         -47.6385  -23.1270    8.3818 C.2       3 UNK         0.4961 
     71 O         -48.4312  -22.9118    9.2999 O.2       3 UNK        -0.5105 
     72 CA        -48.1062  -22.9674    6.9205 C.3       3 UNK         0.0299 
     73 CB        -48.0807  -21.4870    6.5108 C.3       3 UNK        -0.1972 
     74 N         -47.3339  -23.7587    5.9478 N.am      3 UNK        -0.4305 
     75 C         -47.2025  -25.0934    5.9743 C.2       2 UNK         0.5006 
     76 O         -47.7349  -25.8109    6.8262 O.2       2 UNK        -0.5106 
     77 CA        -46.2527  -25.7144    4.9365 C.3       2 UNK         0.0296 
     78 CB        -44.7872  -25.4426    5.3192 C.3       2 UNK        -0.2002 
     79 N         -46.4620  -27.1598    4.8991 N.am      2 UNK        -0.4032 
     80 C         -47.3260  -27.7857    4.0911 C.2       1 UNK         0.5000 
     81 O         -47.8615  -27.2563    3.1148 O.2       1 UNK        -0.5238 
     82 H82       -44.2843  -32.0223    5.2783 H         1 UNK         0.0889 
     83 H83       -43.5818  -30.4732    5.7530 H         1 UNK         0.0889 
     84 H84       -44.9342  -31.1466    6.6657 H         1 UNK         0.0889 
     85 H85       -46.8867  -30.1611    6.1835 H         1 UNK         0.3028 
     86 H86       -47.8688  -29.7837    3.5458 H         1 UNK         0.0864 
     87 H87       -49.8009  -28.7158    4.6370 H         1 UNK         0.0720 
     88 H88       -48.9367  -28.5649    6.1507 H         1 UNK         0.0720 
     89 H89       -51.8189  -30.0545    4.9786 H         1 UNK         0.0814 
     90 H90       -51.9814  -31.3976    6.0747 H         1 UNK         0.0814 
     91 H91       -51.4565  -27.7244    5.8835 H         1 UNK         0.1469 
     92 H92       -52.6221  -27.0743    9.9562 H         1 UNK         0.1381 
     93 H93       -52.1668  -31.0584    8.4884 H         1 UNK         0.1206 
     94 H94       -52.5339  -28.9665   11.5048 H         1 UNK         0.0813 
     95 H95       -52.4409  -30.6128   10.9171 H         1 UNK         0.0813 
     96 H96       -55.5336  -31.0246   12.6412 H         1 UNK         0.0638 
     97 H97       -54.0517  -30.2082   13.0363 H         1 UNK         0.0638 
     98 H98       -55.4994  -27.9827   12.7684 H         1 UNK         0.0568 
     99 H99       -57.8930  -28.3427   14.8403 H         1 UNK         0.3450 
    100 H100      -59.1987  -28.6678   13.7284 H         1 UNK         0.3450 
    101 H101      -55.2400  -27.8036   14.9202 H         1 UNK         0.2987 
    102 H102      -56.1508  -29.7147   17.6633 H         1 UNK         0.0766 
    103 H103      -53.9502  -30.7764   17.5734 H         1 UNK         0.0798 
    104 H104      -53.8320  -29.3496   18.5906 H         1 UNK         0.0798 
    105 H105      -53.1998  -29.3225   16.9441 H         1 UNK         0.0798 
    106 H106      -54.6900  -27.2471   17.4327 H         1 UNK         0.3198 
    107 H107      -57.4547  -25.1871   16.6334 H         1 UNK         0.0843 
    108 H108      -57.2799  -24.1772   18.8941 H         1 UNK         0.0831 
    109 H109      -56.4629  -25.6175   19.5051 H         1 UNK         0.0831 
    110 H110      -58.1389  -25.7047   18.9825 H         1 UNK         0.0831 
    111 H111      -54.9669  -24.5233   17.8454 H         1 UNK         0.3133 
    112 H112      -53.4803  -23.5138   14.9961 H         1 UNK         0.0566 
    113 H113      -53.7593  -22.7142   17.3500 H         1 UNK         0.0814 
    114 H114      -52.9275  -24.1498   17.9533 H         1 UNK         0.0814 
    115 H115      -52.0732  -22.9829   16.9575 H         1 UNK         0.0814 
    116 H116      -51.9001  -24.9928   14.5915 H         1 UNK         0.3091 
    117 H117      -50.8522  -28.0660   16.1417 H         1 UNK         0.0702 
    118 H118      -52.1112  -27.3770   13.4353 H         1 UNK         0.0785 
    119 H119      -52.6394  -28.6464   14.5326 H         1 UNK         0.0785 
    120 H120      -51.0688  -28.7612   13.7599 H         1 UNK         0.0785 
    121 H121      -49.7836  -26.5478   13.9596 H         1 UNK         0.2998 
    122 H122      -47.2251  -24.9776   15.9855 H         1 UNK         0.0697 
    123 H123      -45.8730  -26.1346   14.2772 H         1 UNK         0.0825 
    124 H124      -46.5537  -27.3151   15.3850 H         1 UNK         0.0825 
    125 H125      -47.2551  -27.1098   13.7845 H         1 UNK         0.0825 
    126 H126      -47.7962  -24.7653   13.1995 H         1 UNK         0.3029 
    127 H127      -49.7301  -21.7397   13.4466 H         1 UNK         0.0897 
    128 H128      -47.9447  -21.0856   11.8051 H         1 UNK         0.0792 
    129 H129      -47.3630  -21.0458   13.4631 H         1 UNK         0.0792 
    130 H130      -46.9172  -22.3824   12.4167 H         1 UNK         0.0792 
    131 H131      -49.0236  -23.2246   11.1502 H         1 UNK         0.3086 
    132 H132      -51.8557  -25.4271   11.1873 H         1 UNK         0.0583 
    133 H133      -52.2938  -22.9884   10.2143 H         1 UNK         0.1020 
    134 H134      -50.9913  -23.3385    9.1244 H         1 UNK         0.1020 
    135 H135      -52.2379  -25.5214    6.5889 H         1 UNK         0.0694 
    136 H136      -50.8796  -25.4007    7.6723 H         1 UNK         0.0694 
    137 H137      -49.5562  -25.1593    9.4627 H         1 UNK         0.2989 
    138 H138      -47.5394  -27.6061   11.0654 H         1 UNK         0.1055 
    139 H139      -49.0914  -28.8581    9.5688 H         1 UNK         0.0806 
    140 H140      -49.0487  -27.5575    8.3932 H         1 UNK         0.0806 
    141 H141      -47.5918  -28.4906    8.7289 H         1 UNK         0.0806 
    142 H142      -47.1953  -25.9056    8.7611 H         1 UNK         0.3061 
    143 H143      -45.8158  -23.1122   10.5049 H         1 UNK         0.0734 
    144 H144      -43.7516  -23.5841    9.2115 H         1 UNK         0.0832 
    145 H145      -43.8768  -24.6877   10.5702 H         1 UNK         0.0832 
    146 H146      -44.2632  -25.2533    8.9516 H         1 UNK         0.0832 
    147 H147      -45.8119  -23.6973    7.7495 H         1 UNK         0.3156 
    148 H148      -49.1402  -23.3159    6.8768 H         1 UNK         0.0589 
    149 H149      -48.5042  -21.3416    5.5168 H         1 UNK         0.0808 
    150 H150      -48.6688  -20.8809    7.2018 H         1 UNK         0.0808 
    151 H151      -47.0666  -21.0853    6.5079 H         1 UNK         0.0808 
    152 H152      -46.8578  -23.2399    5.2229 H         1 UNK         0.3098 
    153 H153      -46.4571  -25.2745    3.9580 H         1 UNK         0.0720 
    154 H154      -44.5676  -24.3743    5.3183 H         1 UNK         0.0791 
    155 H155      -44.5484  -25.8260    6.3123 H         1 UNK         0.0791 
    156 H156      -44.1031  -25.9095    4.6101 H         1 UNK         0.0791 
    157 H157      -46.1230  -27.6751    5.6980 H         1 UNK         0.3028 
@<TRIPOS>BOND
     1    1    2 1    
     2    1   82 1    
     3    1   83 1    
     4    1   84 1    
     5    2    3 2    
     6    2    4 am   BACKBONE|DICT|INTERRES
     7    4    5 1    
     8    4   85 1    
     9    5    6 1    
    10    5   80 1    
    11    5   86 1    
    12    6    7 1    
    13    6   87 1    
    14    6   88 1    
    15    7    8 1    
    16    8    9 1    
    17    8   89 1    
    18    8   90 1    
    19    9   10 ar   
    20    9   14 ar   
    21   10   11 ar   
    22   10   91 1    
    23   11   12 ar   
    24   11   58 1    
    25   12   13 ar   
    26   12   92 1    
    27   13   14 ar   
    28   13   15 1    
    29   14   93 1    
    30   15   16 1    
    31   15   94 1    
    32   15   95 1    
    33   16   17 1    
    34   17   18 1    
    35   17   96 1    
    36   17   97 1    
    37   18   19 1    
    38   18   22 1    
    39   18   98 1    
    40   19   20 am   BACKBONE|DICT|INTERRES
    41   19   21 2    
    42   20   99 1    
    43   20  100 1    
    44   22   23 am   BACKBONE|DICT|INTERRES
    45   22  101 1    
    46   23   24 2    
    47   23   25 1    
    48   25   26 1    
    49   25   27 1    
    50   25  102 1    
    51   26  103 1    
    52   26  104 1    
    53   26  105 1    
    54   27   28 am   BACKBONE|DICT|INTERRES
    55   27  106 1    
    56   28   29 2    
    57   28   30 1    
    58   30   31 1    
    59   30   32 1    
    60   30  107 1    
    61   31  108 1    
    62   31  109 1    
    63   31  110 1    
    64   32   33 am   BACKBONE|DICT|INTERRES
    65   32  111 1    
    66   33   34 2    
    67   33   35 1    
    68   35   36 1    
    69   35   37 1    
    70   35  112 1    
    71   36  113 1    
    72   36  114 1    
    73   36  115 1    
    74   37   38 am   BACKBONE|DICT|INTERRES
    75   37  116 1    
    76   38   39 2    
    77   38   40 1    
    78   40   41 1    
    79   40   42 1    
    80   40  117 1    
    81   41  118 1    
    82   41  119 1    
    83   41  120 1    
    84   42   43 am   BACKBONE|DICT|INTERRES
    85   42  121 1    
    86   43   44 2    
    87   43   45 1    
    88   45   46 1    
    89   45   47 1    
    90   45  122 1    
    91   46  123 1    
    92   46  124 1    
    93   46  125 1    
    94   47   48 am   BACKBONE|DICT|INTERRES
    95   47  126 1    
    96   48   49 2    
    97   48   50 1    
    98   50   51 1    
    99   50   52 1    
   100   50  127 1    
   101   51  128 1    
   102   51  129 1    
   103   51  130 1    
   104   52   53 am   BACKBONE|DICT|INTERRES
   105   52  131 1    
   106   53   54 2    
   107   53   55 1    
   108   55   56 1    
   109   55   59 1    
   110   55  132 1    
   111   56   57 1    
   112   56  133 1    
   113   56  134 1    
   114   57   58 1    
   115   58  135 1    
   116   58  136 1    
   117   59   60 am   BACKBONE|DICT|INTERRES
   118   59  137 1    
   119   60   61 2    
   120   60   62 1    
   121   62   63 1    
   122   62   64 1    
   123   62  138 1    
   124   63  139 1    
   125   63  140 1    
   126   63  141 1    
   127   64   65 am   BACKBONE|DICT|INTERRES
   128   64  142 1    
   129   65   66 2    
   130   65   67 1    
   131   67   68 1    
   132   67   69 1    
   133   67  143 1    
   134   68  144 1    
   135   68  145 1    
   136   68  146 1    
   137   69   70 am   BACKBONE|DICT|INTERRES
   138   69  147 1    
   139   70   71 2    
   140   70   72 1    
   141   72   73 1    
   142   72   74 1    
   143   72  148 1    
   144   73  149 1    
   145   73  150 1    
   146   73  151 1    
   147   74   75 am   BACKBONE|DICT|INTERRES
   148   74  152 1    
   149   75   76 2    
   150   75   77 1    
   151   77   78 1    
   152   77   79 1    
   153   77  153 1    
   154   78  154 1    
   155   78  155 1    
   156   78  156 1    
   157   79   80 am   BACKBONE|DICT|INTERRES
   158   79  157 1    
   159   80   81 2    
@<TRIPOS>SUBSTRUCTURE
     1 UNK         1 GROUP             0       ****    0 ROOT    
