@<TRIPOS>MOLECULE
3R207
157   159    1
SMALL
USER_CHARGES


@<TRIPOS>ATOM
      1 CA        -49.5573  -32.1272    2.8726 C.3       0 UNK        -0.1975 
      2 C         -49.0753  -30.8069    3.4560 C.2       0 UNK         0.4852 
      3 O         -47.9774  -30.3560    3.1247 O.2       0 UNK        -0.5216 
      4 N         -49.8909  -30.1809    4.3135 N.am      1 UNK        -0.4461 
      5 CA        -49.5649  -28.9451    5.0316 C.3       1 UNK         0.0864 
      6 C6        -50.8508  -28.2046    5.4879 C.3       14 UNK        -0.0898 
      7 S7        -51.8616  -29.1361    6.6953 S.3       14 UNK        -0.2598 
      8 C8        -51.6719  -28.1198    8.1954 C.3       14 UNK         0.0286 
      9 C9        -52.9014  -27.2576    8.4384 C.ar      14 UNK        -0.0844 
     10 C10       -53.1664  -26.1422    7.6367 C.ar      14 UNK        -0.0881 
     11 C11       -54.2918  -25.3454    7.8784 C.ar      14 UNK        -0.0643 
     12 C12       -55.1523  -25.6698    8.9316 C.ar      14 UNK        -0.0930 
     13 C13       -54.9024  -26.7879    9.7303 C.ar      14 UNK        -0.0827 
     14 C14       -53.7791  -27.5790    9.4765 C.ar      14 UNK        -0.1249 
     15 C15       -55.8538  -27.1659   10.8526 C.3       14 UNK         0.0141 
     16 S16       -55.0500  -27.0112   12.4761 S.3       14 UNK        -0.2313 
     17 C17       -56.1576  -28.0248   13.5144 C.3       14 UNK        -0.0915 
     18 CA        -55.6258  -29.4567   13.7945 C.3       13 UNK         0.0968 
     19 C         -55.5696  -30.3285   12.5021 C.2       13 UNK         0.5732 
     20 N         -54.3989  -30.6867   11.9842 N.am      13 UNK        -0.7310 
     21 O         -56.6142  -30.6912   11.9662 O.2       13 UNK        -0.5035 
     22 N         -54.3838  -29.4405   14.5822 N.am      13 UNK        -0.4233 
     23 C         -53.8600  -30.5252   15.1715 C.2       13 UNK         0.4989 
     24 O         -54.4593  -31.5985   15.2649 O.2       13 UNK        -0.4996 
     25 CA        -52.4335  -30.4098   15.7460 C.3       12 UNK         0.0216 
     26 CB        -51.6695  -31.7497   15.6928 C.3       12 UNK        -0.1964 
     27 N         -51.6232  -29.3436   15.1462 N.am      12 UNK        -0.4276 
     28 C         -51.2970  -29.1658   13.8545 C.2       12 UNK         0.5020 
     29 O         -51.6640  -29.9181   12.9500 O.2       12 UNK        -0.5489 
     30 CA        -50.4436  -27.9275   13.5067 C.3       11 UNK         0.0294 
     31 CB        -51.1176  -27.0715   12.4201 C.3       11 UNK        -0.2019 
     32 N         -50.1937  -27.0905   14.6850 N.am      11 UNK        -0.4493 
     33 C         -49.1110  -27.1735   15.4717 C.2       11 UNK         0.4932 
     34 O         -48.1262  -27.8620   15.2066 O.2       11 UNK        -0.5029 
     35 CA        -49.1444  -26.4027   16.8055 C.3       10 UNK         0.0280 
     36 CB        -48.2727  -25.1399   16.7507 C.3       10 UNK        -0.1976 
     37 N         -50.5040  -26.0513   17.2322 N.am      10 UNK        -0.4242 
     38 C         -51.3571  -26.9274   17.7853 C.2       10 UNK         0.5072 
     39 O         -51.0708  -28.1043   18.0042 O.2       10 UNK        -0.5224 
     40 CA        -52.7836  -26.4415   18.0996 C.3       9 UNK         0.0343 
     41 CB        -52.8568  -25.8715   19.5247 C.3       9 UNK        -0.2003 
     42 N         -53.2951  -25.4496   17.1515 N.am      9 UNK        -0.4272 
     43 C         -53.4553  -25.6512   15.8364 C.2       9 UNK         0.4988 
     44 O         -53.1976  -26.7177   15.2778 O.2       9 UNK        -0.5108 
     45 CA        -53.9380  -24.4577   14.9899 C.3       8 UNK         0.0248 
     46 CB        -54.4887  -23.2761   15.8212 C.3       8 UNK        -0.2001 
     47 N         -52.8981  -23.9856   14.0665 N.am      8 UNK        -0.4140 
     48 C         -51.6549  -23.5933   14.3841 C.2       8 UNK         0.5028 
     49 O         -51.2006  -23.6458   15.5297 O.2       8 UNK        -0.5428 
     50 CA        -50.7596  -23.0483   13.2529 C.3       7 UNK         0.0264 
     51 CB        -49.2891  -23.4542   13.4403 C.3       7 UNK        -0.1988 
     52 N         -51.1701  -23.4272   11.8981 N.am      7 UNK        -0.4454 
     53 C         -52.0793  -22.7938   11.1484 C.2       7 UNK         0.5027 
     54 O         -52.8109  -21.9039   11.5848 O.2       7 UNK        -0.5083 
     55 CA        -52.1487  -23.2043    9.6598 C.3       6 UNK         0.0844 
     56 C56       -53.2781  -22.4653    8.8895 C.3       14 UNK        -0.0967 
     57 S57       -53.2965  -22.8610    7.1037 S.3       14 UNK        -0.2604 
     58 C58       -54.5892  -24.1379    6.9998 C.3       14 UNK         0.0134 
     59 N         -50.8491  -23.0324    8.9994 N.am      6 UNK        -0.4116 
     60 C         -49.7987  -23.8560    9.0896 C.2       5 UNK         0.5034 
     61 O         -49.7782  -24.8501    9.8194 O.2       5 UNK        -0.5045 
     62 CA        -48.5755  -23.5419    8.2050 C.3       5 UNK         0.0224 
     63 CB        -48.5717  -22.1242    7.5866 C.3       5 UNK        -0.1978 
     64 N         -47.3187  -23.8216    8.9065 N.am      5 UNK        -0.4737 
     65 C         -46.8455  -23.2148   10.0065 C.2       4 UNK         0.5027 
     66 O         -47.3667  -22.2230   10.5164 O.2       4 UNK        -0.5211 
     67 CA        -45.5913  -23.8167   10.6739 C.3       4 UNK         0.0297 
     68 CB        -45.9258  -24.3299   12.0857 C.3       4 UNK        -0.1993 
     69 N         -45.0015  -24.9165    9.9068 N.am      4 UNK        -0.4486 
     70 C         -44.1659  -24.7714    8.8697 C.2       3 UNK         0.4961 
     71 O         -43.7267  -23.6871    8.4866 O.2       3 UNK        -0.5105 
     72 CA        -43.7766  -26.0567    8.1146 C.3       3 UNK         0.0299 
     73 CB        -42.4574  -26.6236    8.6639 C.3       3 UNK        -0.1972 
     74 N         -44.8103  -27.1006    8.1523 N.am      3 UNK        -0.4305 
     75 C         -46.0264  -26.9864    7.6014 C.2       2 UNK         0.5006 
     76 O         -46.4242  -25.9784    7.0119 O.2       2 UNK        -0.5106 
     77 CA        -46.9787  -28.1701    7.7811 C.3       2 UNK         0.0296 
     78 CB        -47.7221  -28.0740    9.1277 C.3       2 UNK        -0.2002 
     79 N         -47.9387  -28.1484    6.6821 N.am      2 UNK        -0.4032 
     80 C         -48.5883  -29.2128    6.2009 C.2       1 UNK         0.5000 
     81 O         -48.4582  -30.3534    6.6577 O.2       1 UNK        -0.5238 
     82 H82       -49.6044  -32.0627    1.7858 H         1 UNK         0.0889 
     83 H83       -50.5474  -32.3975    3.2394 H         1 UNK         0.0889 
     84 H84       -48.8674  -32.9279    3.1377 H         1 UNK         0.0889 
     85 H85       -50.7631  -30.6139    4.5825 H         1 UNK         0.3028 
     86 H86       -49.0457  -28.2880    4.3300 H         1 UNK         0.0864 
     87 H87       -50.5993  -27.2206    5.8858 H         1 UNK         0.0720 
     88 H88       -51.4796  -28.0038    4.6190 H         1 UNK         0.0720 
     89 H89       -50.7815  -27.4918    8.1414 H         1 UNK         0.0814 
     90 H90       -51.5069  -28.7891    9.0414 H         1 UNK         0.0814 
     91 H91       -52.4967  -25.8895    6.8266 H         1 UNK         0.1469 
     92 H92       -56.0235  -25.0582    9.1225 H         1 UNK         0.1381 
     93 H93       -53.5880  -28.4439   10.0979 H         1 UNK         0.1206 
     94 H94       -56.1886  -28.1904   10.6911 H         1 UNK         0.0813 
     95 H95       -56.7494  -26.5430   10.8384 H         1 UNK         0.0813 
     96 H96       -56.2937  -27.4979   14.4600 H         1 UNK         0.0638 
     97 H97       -57.1488  -28.0662   13.0593 H         1 UNK         0.0638 
     98 H98       -56.3740  -29.9378   14.4272 H         1 UNK         0.0568 
     99 H99       -53.5253  -30.3879   12.4073 H         1 UNK         0.3450 
    100 H100      -54.3834  -31.2563   11.1545 H         1 UNK         0.3450 
    101 H101      -53.8543  -28.5752   14.5699 H         1 UNK         0.2987 
    102 H102      -52.5574  -30.1405   16.7957 H         1 UNK         0.0766 
    103 H103      -51.5601  -32.1099   14.6692 H         1 UNK         0.0798 
    104 H104      -50.6727  -31.6546   16.1234 H         1 UNK         0.0798 
    105 H105      -52.1901  -32.5243   16.2572 H         1 UNK         0.0798 
    106 H106      -51.2906  -28.6521   15.8052 H         1 UNK         0.3198 
    107 H107      -49.4984  -28.2970   13.1035 H         1 UNK         0.0843 
    108 H108      -51.3355  -27.6613   11.5288 H         1 UNK         0.0831 
    109 H109      -50.4694  -26.2539   12.1086 H         1 UNK         0.0831 
    110 H110      -52.0594  -26.6450   12.7649 H         1 UNK         0.0831 
    111 H111      -50.9754  -26.5257   14.9944 H         1 UNK         0.3133 
    112 H112      -48.7081  -27.0619   17.5592 H         1 UNK         0.0566 
    113 H113      -48.1650  -24.6935   17.7393 H         1 UNK         0.0814 
    114 H114      -47.2696  -25.3673   16.3870 H         1 UNK         0.0814 
    115 H115      -48.6972  -24.3858   16.0932 H         1 UNK         0.0814 
    116 H116      -50.8267  -25.1146   17.0074 H         1 UNK         0.3091 
    117 H117      -53.4417  -27.3115   18.0460 H         1 UNK         0.0702 
    118 H118      -53.8803  -25.6133   19.7972 H         1 UNK         0.0785 
    119 H119      -52.2428  -24.9766   19.6343 H         1 UNK         0.0785 
    120 H120      -52.5036  -26.6010   20.2551 H         1 UNK         0.0785 
    121 H121      -53.4999  -24.5320   17.5192 H         1 UNK         0.2998 
    122 H122      -54.7578  -24.8306   14.3764 H         1 UNK         0.0697 
    123 H123      -53.7190  -22.8011   16.4309 H         1 UNK         0.0825 
    124 H124      -55.2926  -23.5984   16.4846 H         1 UNK         0.0825 
    125 H125      -54.9061  -22.5074   15.1706 H         1 UNK         0.0825 
    126 H126      -53.1685  -23.9256   13.0954 H         1 UNK         0.3029 
    127 H127      -50.8074  -21.9596   13.3265 H         1 UNK         0.0897 
    128 H128      -48.6802  -23.1128   12.6054 H         1 UNK         0.0792 
    129 H129      -48.8717  -22.9970   14.3369 H         1 UNK         0.0792 
    130 H130      -49.1700  -24.5349   13.5231 H         1 UNK         0.0792 
    131 H131      -50.6082  -24.1342   11.4310 H         1 UNK         0.3086 
    132 H132      -52.3879  -24.2691    9.6536 H         1 UNK         0.0583 
    133 H133      -54.2525  -22.6974    9.3236 H         1 UNK         0.1020 
    134 H134      -53.1594  -21.3840    8.9829 H         1 UNK         0.1020 
    135 H135      -55.5492  -23.6899    7.2612 H         1 UNK         0.0694 
    136 H136      -54.6770  -24.4664    5.9634 H         1 UNK         0.0694 
    137 H137      -50.7758  -22.2328    8.3885 H         1 UNK         0.2989 
    138 H138      -48.6204  -24.2560    7.3812 H         1 UNK         0.1055 
    139 H139      -47.6638  -21.9546    7.0075 H         1 UNK         0.0806 
    140 H140      -48.6278  -21.3425    8.3452 H         1 UNK         0.0806 
    141 H141      -49.4100  -21.9860    6.9026 H         1 UNK         0.0806 
    142 H142      -46.8059  -24.6167    8.5439 H         1 UNK         0.3061 
    143 H143      -44.8552  -23.0154   10.7683 H         1 UNK         0.0734 
    144 H144      -46.2710  -23.5153   12.7235 H         1 UNK         0.0832 
    145 H145      -46.7126  -25.0855   12.0666 H         1 UNK         0.0832 
    146 H146      -45.0514  -24.7644   12.5703 H         1 UNK         0.0832 
    147 H147      -45.2976  -25.8498   10.1523 H         1 UNK         0.3156 
    148 H148      -43.6199  -25.7844    7.0686 H         1 UNK         0.0589 
    149 H149      -42.5533  -26.9391    9.7036 H         1 UNK         0.0808 
    150 H150      -42.1195  -27.4808    8.0812 H         1 UNK         0.0808 
    151 H151      -41.6646  -25.8751    8.6231 H         1 UNK         0.0808 
    152 H152      -44.5670  -27.9616    8.6223 H         1 UNK         0.3098 
    153 H153      -46.3986  -29.0947    7.7414 H         1 UNK         0.0720 
    154 H154      -48.4129  -28.9069    9.2604 H         1 UNK         0.0791 
    155 H155      -48.2977  -27.1503    9.2061 H         1 UNK         0.0791 
    156 H156      -47.0257  -28.0977    9.9665 H         1 UNK         0.0791 
    157 H157      -48.0351  -27.2426    6.2393 H         1 UNK         0.3028 
@<TRIPOS>BOND
     1    1    2 1    
     2    1   82 1    
     3    1   83 1    
     4    1   84 1    
     5    2    3 2    
     6    2    4 am   BACKBONE|DICT|INTERRES
     7    4    5 1    
     8    4   85 1    
     9    5    6 1    
    10    5   80 1    
    11    5   86 1    
    12    6    7 1    
    13    6   87 1    
    14    6   88 1    
    15    7    8 1    
    16    8    9 1    
    17    8   89 1    
    18    8   90 1    
    19    9   10 ar   
    20    9   14 ar   
    21   10   11 ar   
    22   10   91 1    
    23   11   12 ar   
    24   11   58 1    
    25   12   13 ar   
    26   12   92 1    
    27   13   14 ar   
    28   13   15 1    
    29   14   93 1    
    30   15   16 1    
    31   15   94 1    
    32   15   95 1    
    33   16   17 1    
    34   17   18 1    
    35   17   96 1    
    36   17   97 1    
    37   18   19 1    
    38   18   22 1    
    39   18   98 1    
    40   19   20 am   BACKBONE|DICT|INTERRES
    41   19   21 2    
    42   20   99 1    
    43   20  100 1    
    44   22   23 am   BACKBONE|DICT|INTERRES
    45   22  101 1    
    46   23   24 2    
    47   23   25 1    
    48   25   26 1    
    49   25   27 1    
    50   25  102 1    
    51   26  103 1    
    52   26  104 1    
    53   26  105 1    
    54   27   28 am   BACKBONE|DICT|INTERRES
    55   27  106 1    
    56   28   29 2    
    57   28   30 1    
    58   30   31 1    
    59   30   32 1    
    60   30  107 1    
    61   31  108 1    
    62   31  109 1    
    63   31  110 1    
    64   32   33 am   BACKBONE|DICT|INTERRES
    65   32  111 1    
    66   33   34 2    
    67   33   35 1    
    68   35   36 1    
    69   35   37 1    
    70   35  112 1    
    71   36  113 1    
    72   36  114 1    
    73   36  115 1    
    74   37   38 am   BACKBONE|DICT|INTERRES
    75   37  116 1    
    76   38   39 2    
    77   38   40 1    
    78   40   41 1    
    79   40   42 1    
    80   40  117 1    
    81   41  118 1    
    82   41  119 1    
    83   41  120 1    
    84   42   43 am   BACKBONE|DICT|INTERRES
    85   42  121 1    
    86   43   44 2    
    87   43   45 1    
    88   45   46 1    
    89   45   47 1    
    90   45  122 1    
    91   46  123 1    
    92   46  124 1    
    93   46  125 1    
    94   47   48 am   BACKBONE|DICT|INTERRES
    95   47  126 1    
    96   48   49 2    
    97   48   50 1    
    98   50   51 1    
    99   50   52 1    
   100   50  127 1    
   101   51  128 1    
   102   51  129 1    
   103   51  130 1    
   104   52   53 am   BACKBONE|DICT|INTERRES
   105   52  131 1    
   106   53   54 2    
   107   53   55 1    
   108   55   56 1    
   109   55   59 1    
   110   55  132 1    
   111   56   57 1    
   112   56  133 1    
   113   56  134 1    
   114   57   58 1    
   115   58  135 1    
   116   58  136 1    
   117   59   60 am   BACKBONE|DICT|INTERRES
   118   59  137 1    
   119   60   61 2    
   120   60   62 1    
   121   62   63 1    
   122   62   64 1    
   123   62  138 1    
   124   63  139 1    
   125   63  140 1    
   126   63  141 1    
   127   64   65 am   BACKBONE|DICT|INTERRES
   128   64  142 1    
   129   65   66 2    
   130   65   67 1    
   131   67   68 1    
   132   67   69 1    
   133   67  143 1    
   134   68  144 1    
   135   68  145 1    
   136   68  146 1    
   137   69   70 am   BACKBONE|DICT|INTERRES
   138   69  147 1    
   139   70   71 2    
   140   70   72 1    
   141   72   73 1    
   142   72   74 1    
   143   72  148 1    
   144   73  149 1    
   145   73  150 1    
   146   73  151 1    
   147   74   75 am   BACKBONE|DICT|INTERRES
   148   74  152 1    
   149   75   76 2    
   150   75   77 1    
   151   77   78 1    
   152   77   79 1    
   153   77  153 1    
   154   78  154 1    
   155   78  155 1    
   156   78  156 1    
   157   79   80 am   BACKBONE|DICT|INTERRES
   158   79  157 1    
   159   80   81 2    
@<TRIPOS>SUBSTRUCTURE
     1 UNK         1 GROUP             0       ****    0 ROOT    
