@<TRIPOS>MOLECULE
3R207
157   159    1
SMALL
USER_CHARGES


@<TRIPOS>ATOM
      1 CA        -47.4862  -30.7611    3.2407 C.3       0 UNK        -0.1975 
      2 C         -48.0237  -29.3378    3.2247 C.2       0 UNK         0.4852 
      3 O         -47.5694  -28.5212    2.4225 O.2       0 UNK        -0.5216 
      4 N         -48.9860  -29.0346    4.1066 N.am      1 UNK        -0.4461 
      5 CA        -49.6381  -27.7212    4.2253 C.3       1 UNK         0.0864 
      6 C6        -50.9718  -27.8066    5.0068 C.3       14 UNK        -0.0898 
      7 S7        -52.1322  -29.0224    4.2892 S.3       14 UNK        -0.2598 
      8 C8        -53.6999  -28.5833    5.1131 C.3       14 UNK         0.0286 
      9 C9        -53.5483  -28.4766    6.6246 C.ar      14 UNK        -0.0844 
     10 C10       -53.7787  -27.2560    7.2673 C.ar      14 UNK        -0.0881 
     11 C11       -53.5818  -27.1334    8.6445 C.ar      14 UNK        -0.0643 
     12 C12       -53.1360  -28.2395    9.3731 C.ar      14 UNK        -0.0930 
     13 C13       -52.9393  -29.4769    8.7530 C.ar      14 UNK        -0.0827 
     14 C14       -53.1552  -29.5892    7.3765 C.ar      14 UNK        -0.1249 
     15 C15       -52.4632  -30.6822    9.5582 C.3       14 UNK         0.0141 
     16 S16       -53.7728  -31.3817   10.6205 S.3       14 UNK        -0.2313 
     17 C17       -53.7564  -30.2002   12.0086 C.3       14 UNK        -0.0915 
     18 CA        -54.3603  -30.7292   13.3311 C.3       13 UNK         0.0968 
     19 C         -53.4685  -31.8017   14.0136 C.2       13 UNK         0.5732 
     20 N         -53.7431  -33.0786   13.7853 N.am      13 UNK        -0.7310 
     21 O         -52.5181  -31.4856   14.7275 O.2       13 UNK        -0.5035 
     22 N         -54.6086  -29.5895   14.2171 N.am      13 UNK        -0.4233 
     23 C         -55.4381  -29.5655   15.2647 C.2       13 UNK         0.4989 
     24 O         -56.1305  -30.5221   15.6147 O.2       13 UNK        -0.4996 
     25 CA        -55.5205  -28.2417   16.0521 C.3       12 UNK         0.0216 
     26 CB        -54.7852  -28.3734   17.3955 C.3       12 UNK        -0.1964 
     27 N         -54.9900  -27.0826   15.3174 N.am      12 UNK        -0.4276 
     28 C         -55.5917  -26.5179   14.2560 C.2       12 UNK         0.5020 
     29 O         -56.6790  -26.9005   13.8204 O.2       12 UNK        -0.5489 
     30 CA        -54.8510  -25.3708   13.5323 C.3       11 UNK         0.0294 
     31 CB        -55.8028  -24.4111   12.7886 C.3       11 UNK        -0.2019 
     32 N         -53.9171  -24.6254   14.3804 N.am      11 UNK        -0.4493 
     33 C         -54.1935  -23.9475   15.5054 C.2       11 UNK         0.4932 
     34 O         -55.3331  -23.7762   15.9408 O.2       11 UNK        -0.5029 
     35 CA        -52.9832  -23.3961   16.2899 C.3       10 UNK         0.0280 
     36 CB        -53.2801  -23.2347   17.7956 C.3       10 UNK        -0.1976 
     37 N         -51.7499  -24.1717   16.0933 N.am      10 UNK        -0.4242 
     38 C         -51.5658  -25.4844   16.3240 C.2       10 UNK         0.5072 
     39 O         -52.4509  -26.2247   16.7545 O.2       10 UNK        -0.5224 
     40 CA        -50.1984  -26.0982   15.9640 C.3       9 UNK         0.0343 
     41 CB        -50.3724  -27.3642   15.1037 C.3       9 UNK        -0.2003 
     42 N         -49.3481  -25.1553   15.2376 N.am      9 UNK        -0.4272 
     43 C         -48.4266  -24.3543   15.7888 C.2       9 UNK         0.4988 
     44 O         -48.1251  -24.3749   16.9822 O.2       9 UNK        -0.5108 
     45 CA        -47.7385  -23.3385   14.8576 C.3       8 UNK         0.0248 
     46 CB        -46.3587  -23.8590   14.4341 C.3       8 UNK        -0.2001 
     47 N         -48.5252  -23.0184   13.6607 N.am      8 UNK        -0.4140 
     48 C         -49.6728  -22.3254   13.6763 C.2       8 UNK         0.5028 
     49 O         -50.1854  -21.8799   14.7034 O.2       8 UNK        -0.5428 
     50 CA        -50.4061  -22.1554   12.3348 C.3       7 UNK         0.0264 
     51 CB        -49.7917  -21.0023   11.5257 C.3       7 UNK        -0.1988 
     52 N         -50.4292  -23.3681   11.5108 N.am      7 UNK        -0.4454 
     53 C         -50.9283  -24.5527   11.8891 C.2       7 UNK         0.5027 
     54 O         -51.4018  -24.7669   13.0061 O.2       7 UNK        -0.5083 
     55 CA        -50.8820  -25.7037   10.8748 C.3       6 UNK         0.0844 
     56 C56       -51.0612  -25.3017    9.3870 C.3       14 UNK        -0.0967 
     57 S57       -52.6548  -24.5109    8.9806 S.3       14 UNK        -0.2604 
     58 C58       -53.8720  -25.8159    9.3517 C.3       14 UNK         0.0134 
     59 N         -49.6312  -26.4313   11.0554 N.am      6 UNK        -0.4116 
     60 C         -49.5364  -27.7419   11.3102 C.2       5 UNK         0.5034 
     61 O         -50.4970  -28.4515   11.6050 O.2       5 UNK        -0.5045 
     62 CA        -48.1502  -28.3964   11.1817 C.3       5 UNK         0.0224 
     63 CB        -48.1593  -29.4270   10.0385 C.3       5 UNK        -0.1978 
     64 N         -47.0929  -27.4198   10.9089 N.am      5 UNK        -0.4737 
     65 C         -46.2059  -26.9828   11.8123 C.2       4 UNK         0.5027 
     66 O         -46.1613  -27.3825   12.9752 O.2       4 UNK        -0.5211 
     67 CA        -45.1965  -25.9136   11.3492 C.3       4 UNK         0.0297 
     68 CB        -43.8790  -26.5811   10.9237 C.3       4 UNK        -0.1993 
     69 N         -45.6761  -25.0648   10.2548 N.am      4 UNK        -0.4486 
     70 C         -46.7621  -24.2796   10.2866 C.2       3 UNK         0.4961 
     71 O         -47.4952  -24.1541   11.2671 O.2       3 UNK        -0.5105 
     72 CA        -47.1383  -23.5685    8.9758 C.3       3 UNK         0.0299 
     73 CB        -46.4795  -22.1821    8.9136 C.3       3 UNK        -0.1972 
     74 N         -46.7966  -24.3336    7.7698 N.am      3 UNK        -0.4305 
     75 C         -47.2435  -25.5646    7.4804 C.2       2 UNK         0.5006 
     76 O         -47.9928  -26.2169    8.2120 O.2       2 UNK        -0.5106 
     77 CA        -46.6806  -26.2047    6.2042 C.3       2 UNK         0.0296 
     78 CB        -45.4302  -27.0348    6.5402 C.3       2 UNK        -0.2002 
     79 N         -47.6631  -27.0711    5.5556 N.am      2 UNK        -0.4032 
     80 C         -48.7170  -26.6445    4.8443 C.2       1 UNK         0.5000 
     81 O         -48.9689  -25.4533    4.6503 O.2       1 UNK        -0.5238 
     82 H82       -47.9780  -31.3747    3.9953 H         1 UNK         0.0889 
     83 H83       -46.4171  -30.7562    3.4512 H         1 UNK         0.0889 
     84 H84       -47.6404  -31.2307    2.2695 H         1 UNK         0.0889 
     85 H85       -49.3456  -29.7535    4.7188 H         1 UNK         0.3028 
     86 H86       -49.8714  -27.3808    3.2138 H         1 UNK         0.0864 
     87 H87       -50.7873  -28.0771    6.0487 H         1 UNK         0.0720 
     88 H88       -51.4650  -26.8325    5.0243 H         1 UNK         0.0720 
     89 H89       -54.4499  -29.3401    4.8793 H         1 UNK         0.0814 
     90 H90       -54.0667  -27.6462    4.6915 H         1 UNK         0.0814 
     91 H91       -54.0994  -26.3941    6.6981 H         1 UNK         0.1469 
     92 H92       -52.9478  -28.1391   10.4305 H         1 UNK         0.1381 
     93 H93       -52.9863  -30.5348    6.8793 H         1 UNK         0.1206 
     94 H94       -51.5984  -30.4075   10.1627 H         1 UNK         0.0813 
     95 H95       -52.1159  -31.4673    8.8850 H         1 UNK         0.0813 
     96 H96       -54.3409  -29.3400   11.6798 H         1 UNK         0.0638 
     97 H97       -52.7393  -29.8410   12.1747 H         1 UNK         0.0638 
     98 H98       -55.3289  -31.1803   13.1057 H         1 UNK         0.0568 
     99 H99       -53.1687  -33.7878   14.2125 H         1 UNK         0.3450 
    100 H100      -54.5048  -33.3453   13.1813 H         1 UNK         0.3450 
    101 H101      -54.0463  -28.7709   14.0473 H         1 UNK         0.2987 
    102 H102      -56.5759  -28.0536   16.2605 H         1 UNK         0.0766 
    103 H103      -54.8606  -27.4573   17.9820 H         1 UNK         0.0798 
    104 H104      -53.7262  -28.5946   17.2548 H         1 UNK         0.0798 
    105 H105      -55.2090  -29.1792   17.9963 H         1 UNK         0.0798 
    106 H106      -54.1134  -26.6951   15.6570 H         1 UNK         0.3198 
    107 H107      -54.2299  -25.8597   12.7814 H         1 UNK         0.0843 
    108 H108      -55.2489  -23.6377   12.2564 H         1 UNK         0.0831 
    109 H109      -56.4957  -23.9197   13.4722 H         1 UNK         0.0831 
    110 H110      -56.4001  -24.9450   12.0485 H         1 UNK         0.0831 
    111 H111      -52.9421  -24.6776   14.0896 H         1 UNK         0.3133 
    112 H112      -52.7851  -22.4043   15.8814 H         1 UNK         0.0566 
    113 H113      -52.4191  -22.8314   18.3285 H         1 UNK         0.0814 
    114 H114      -54.1114  -22.5484   17.9613 H         1 UNK         0.0814 
    115 H115      -53.5462  -24.1858   18.2583 H         1 UNK         0.0814 
    116 H116      -50.9800  -23.6459   15.6954 H         1 UNK         0.3091 
    117 H117      -49.7166  -26.3874   16.9000 H         1 UNK         0.0702 
    118 H118      -50.9262  -28.1339   15.6430 H         1 UNK         0.0785 
    119 H119      -49.4089  -27.7943   14.8297 H         1 UNK         0.0785 
    120 H120      -50.9193  -27.1575   14.1831 H         1 UNK         0.0785 
    121 H121      -49.5699  -25.0319   14.2582 H         1 UNK         0.2998 
    122 H122      -47.5968  -22.4146   15.4222 H         1 UNK         0.0697 
    123 H123      -46.4430  -24.8233   13.9355 H         1 UNK         0.0825 
    124 H124      -45.7102  -23.9969   15.3002 H         1 UNK         0.0825 
    125 H125      -45.8574  -23.1678   13.7562 H         1 UNK         0.0825 
    126 H126      -48.1784  -23.3766   12.7715 H         1 UNK         0.3029 
    127 H127      -51.4432  -21.8991   12.5623 H         1 UNK         0.0897 
    128 H128      -50.3636  -20.8033   10.6192 H         1 UNK         0.0792 
    129 H129      -49.7801  -20.0798   12.1081 H         1 UNK         0.0792 
    130 H130      -48.7628  -21.2169   11.2346 H         1 UNK         0.0792 
    131 H131      -50.0471  -23.2818   10.5819 H         1 UNK         0.3086 
    132 H132      -51.7167  -26.3497   11.1442 H         1 UNK         0.0583 
    133 H133      -50.2577  -24.6433    9.0573 H         1 UNK         0.1020 
    134 H134      -50.9618  -26.1892    8.7590 H         1 UNK         0.1020 
    135 H135      -53.9254  -25.9607   10.4304 H         1 UNK         0.0694 
    136 H136      -54.8598  -25.4626    9.0524 H         1 UNK         0.0694 
    137 H137      -48.7803  -25.9057   10.9031 H         1 UNK         0.2989 
    138 H138      -47.9554  -28.9233   12.1186 H         1 UNK         0.1055 
    139 H139      -48.9076  -30.2014   10.2131 H         1 UNK         0.0806 
    140 H140      -47.1946  -29.9261    9.9469 H         1 UNK         0.0806 
    141 H141      -48.3895  -28.9617    9.0787 H         1 UNK         0.0806 
    142 H142      -47.0842  -27.0232    9.9752 H         1 UNK         0.3061 
    143 H143      -44.9853  -25.2637   12.1993 H         1 UNK         0.0734 
    144 H144      -43.1171  -25.8404   10.6799 H         1 UNK         0.0832 
    145 H145      -43.4784  -27.2004   11.7278 H         1 UNK         0.0832 
    146 H146      -44.0144  -27.2256   10.0540 H         1 UNK         0.0832 
    147 H147      -45.1462  -25.0965    9.3965 H         1 UNK         0.3156 
    148 H148      -48.2198  -23.4271    8.9784 H         1 UNK         0.0589 
    149 H149      -45.3922  -22.2515    8.8611 H         1 UNK         0.0808 
    150 H150      -46.8227  -21.6178    8.0462 H         1 UNK         0.0808 
    151 H151      -46.7242  -21.5917    9.7977 H         1 UNK         0.0808 
    152 H152      -46.1732  -23.8822    7.1150 H         1 UNK         0.3098 
    153 H153      -46.4004  -25.4163    5.5022 H         1 UNK         0.0720 
    154 H154      -45.0029  -27.4877    5.6452 H         1 UNK         0.0791 
    155 H155      -45.6536  -27.8355    7.2471 H         1 UNK         0.0791 
    156 H156      -44.6532  -26.4131    6.9871 H         1 UNK         0.0791 
    157 H157      -47.5535  -28.0647    5.6909 H         1 UNK         0.3028 
@<TRIPOS>BOND
     1    1    2 1    
     2    1   82 1    
     3    1   83 1    
     4    1   84 1    
     5    2    3 2    
     6    2    4 am   BACKBONE|DICT|INTERRES
     7    4    5 1    
     8    4   85 1    
     9    5    6 1    
    10    5   80 1    
    11    5   86 1    
    12    6    7 1    
    13    6   87 1    
    14    6   88 1    
    15    7    8 1    
    16    8    9 1    
    17    8   89 1    
    18    8   90 1    
    19    9   10 ar   
    20    9   14 ar   
    21   10   11 ar   
    22   10   91 1    
    23   11   12 ar   
    24   11   58 1    
    25   12   13 ar   
    26   12   92 1    
    27   13   14 ar   
    28   13   15 1    
    29   14   93 1    
    30   15   16 1    
    31   15   94 1    
    32   15   95 1    
    33   16   17 1    
    34   17   18 1    
    35   17   96 1    
    36   17   97 1    
    37   18   19 1    
    38   18   22 1    
    39   18   98 1    
    40   19   20 am   BACKBONE|DICT|INTERRES
    41   19   21 2    
    42   20   99 1    
    43   20  100 1    
    44   22   23 am   BACKBONE|DICT|INTERRES
    45   22  101 1    
    46   23   24 2    
    47   23   25 1    
    48   25   26 1    
    49   25   27 1    
    50   25  102 1    
    51   26  103 1    
    52   26  104 1    
    53   26  105 1    
    54   27   28 am   BACKBONE|DICT|INTERRES
    55   27  106 1    
    56   28   29 2    
    57   28   30 1    
    58   30   31 1    
    59   30   32 1    
    60   30  107 1    
    61   31  108 1    
    62   31  109 1    
    63   31  110 1    
    64   32   33 am   BACKBONE|DICT|INTERRES
    65   32  111 1    
    66   33   34 2    
    67   33   35 1    
    68   35   36 1    
    69   35   37 1    
    70   35  112 1    
    71   36  113 1    
    72   36  114 1    
    73   36  115 1    
    74   37   38 am   BACKBONE|DICT|INTERRES
    75   37  116 1    
    76   38   39 2    
    77   38   40 1    
    78   40   41 1    
    79   40   42 1    
    80   40  117 1    
    81   41  118 1    
    82   41  119 1    
    83   41  120 1    
    84   42   43 am   BACKBONE|DICT|INTERRES
    85   42  121 1    
    86   43   44 2    
    87   43   45 1    
    88   45   46 1    
    89   45   47 1    
    90   45  122 1    
    91   46  123 1    
    92   46  124 1    
    93   46  125 1    
    94   47   48 am   BACKBONE|DICT|INTERRES
    95   47  126 1    
    96   48   49 2    
    97   48   50 1    
    98   50   51 1    
    99   50   52 1    
   100   50  127 1    
   101   51  128 1    
   102   51  129 1    
   103   51  130 1    
   104   52   53 am   BACKBONE|DICT|INTERRES
   105   52  131 1    
   106   53   54 2    
   107   53   55 1    
   108   55   56 1    
   109   55   59 1    
   110   55  132 1    
   111   56   57 1    
   112   56  133 1    
   113   56  134 1    
   114   57   58 1    
   115   58  135 1    
   116   58  136 1    
   117   59   60 am   BACKBONE|DICT|INTERRES
   118   59  137 1    
   119   60   61 2    
   120   60   62 1    
   121   62   63 1    
   122   62   64 1    
   123   62  138 1    
   124   63  139 1    
   125   63  140 1    
   126   63  141 1    
   127   64   65 am   BACKBONE|DICT|INTERRES
   128   64  142 1    
   129   65   66 2    
   130   65   67 1    
   131   67   68 1    
   132   67   69 1    
   133   67  143 1    
   134   68  144 1    
   135   68  145 1    
   136   68  146 1    
   137   69   70 am   BACKBONE|DICT|INTERRES
   138   69  147 1    
   139   70   71 2    
   140   70   72 1    
   141   72   73 1    
   142   72   74 1    
   143   72  148 1    
   144   73  149 1    
   145   73  150 1    
   146   73  151 1    
   147   74   75 am   BACKBONE|DICT|INTERRES
   148   74  152 1    
   149   75   76 2    
   150   75   77 1    
   151   77   78 1    
   152   77   79 1    
   153   77  153 1    
   154   78  154 1    
   155   78  155 1    
   156   78  156 1    
   157   79   80 am   BACKBONE|DICT|INTERRES
   158   79  157 1    
   159   80   81 2    
@<TRIPOS>SUBSTRUCTURE
     1 UNK         1 GROUP             0       ****    0 ROOT    
