@<TRIPOS>MOLECULE
3R207
157   159    1
SMALL
USER_CHARGES


@<TRIPOS>ATOM
      1 CA        -46.7456  -26.7528   12.1134 C.3       0 UNK        -0.1975 
      2 C         -47.1517  -26.9301   10.6602 C.2       0 UNK         0.4852 
      3 O         -48.1303  -26.3260   10.2198 O.2       0 UNK        -0.5216 
      4 N         -46.3907  -27.7561    9.9295 N.am      1 UNK        -0.4461 
      5 CA        -46.4878  -28.0014    8.4821 C.3       1 UNK         0.0864 
      6 C6        -47.8604  -28.5524    8.0059 C.3       14 UNK        -0.0898 
      7 S7        -48.2010  -30.1733    8.7683 S.3       14 UNK        -0.2598 
      8 C8        -49.4631  -30.8502    7.6478 C.3       14 UNK         0.0286 
      9 C9        -50.8222  -30.2174    7.8978 C.ar      14 UNK        -0.0844 
     10 C10       -51.3387  -29.2630    7.0157 C.ar      14 UNK        -0.0881 
     11 C11       -52.5908  -28.6868    7.2521 C.ar      14 UNK        -0.0643 
     12 C12       -53.3266  -29.0749    8.3764 C.ar      14 UNK        -0.0930 
     13 C13       -52.8134  -30.0184    9.2691 C.ar      14 UNK        -0.0827 
     14 C14       -51.5654  -30.5931    9.0203 C.ar      14 UNK        -0.1249 
     15 C15       -53.5974  -30.4020   10.5116 C.3       14 UNK         0.0141 
     16 S16       -53.1296  -29.3372   11.9057 S.3       14 UNK        -0.2313 
     17 C17       -54.2276  -29.9647   13.2142 C.3       14 UNK        -0.0915 
     18 CA        -55.4149  -29.0081   13.4984 C.3       13 UNK         0.0968 
     19 C         -56.4364  -29.6226   14.5009 C.2       13 UNK         0.5732 
     20 N         -56.9607  -28.8850   15.4726 N.am      13 UNK        -0.7310 
     21 O         -56.7776  -30.7979   14.3899 O.2       13 UNK        -0.5035 
     22 N         -54.9599  -27.6567   13.8718 N.am      13 UNK        -0.4233 
     23 C         -55.5415  -26.5276   13.4487 C.2       13 UNK         0.4989 
     24 O         -56.4885  -26.4983   12.6589 O.2       13 UNK        -0.4996 
     25 CA        -54.9963  -25.2130   14.0444 C.3       12 UNK         0.0216 
     26 CB        -55.8320  -23.9815   13.6379 C.3       12 UNK        -0.1964 
     27 N         -54.8418  -25.2492   15.5050 N.am      12 UNK        -0.4276 
     28 C         -55.7419  -25.6196   16.4284 C.2       12 UNK         0.5020 
     29 O         -56.8690  -26.0338   16.1525 O.2       12 UNK        -0.5489 
     30 CA        -55.3016  -25.5428   17.9082 C.3       11 UNK         0.0294 
     31 CB        -56.2393  -26.3322   18.8415 C.3       11 UNK        -0.2019 
     32 N         -53.9283  -26.0116   18.1175 N.am      11 UNK        -0.4493 
     33 C         -52.8182  -25.3156   17.8417 C.2       11 UNK         0.4932 
     34 O         -52.8309  -24.1627   17.4109 O.2       11 UNK        -0.5029 
     35 CA        -51.4713  -26.0359   18.0139 C.3       10 UNK         0.0280 
     36 CB        -50.8832  -25.7389   19.4027 C.3       10 UNK        -0.1976 
     37 N         -51.4991  -27.4884   17.7987 N.am      10 UNK        -0.4242 
     38 C         -51.9245  -28.1142   16.6924 C.2       10 UNK         0.5072 
     39 O         -52.5256  -27.5703   15.7579 O.2       10 UNK        -0.5224 
     40 CA        -51.6109  -29.6110   16.5990 C.3       9 UNK         0.0343 
     41 CB        -52.8642  -30.4548   16.8872 C.3       9 UNK        -0.2003 
     42 N         -51.1523  -29.8224   15.2309 N.am      9 UNK        -0.4272 
     43 C         -49.9028  -30.1527   14.8817 C.2       9 UNK         0.4988 
     44 O         -49.0837  -30.6688   15.6427 O.2       9 UNK        -0.5108 
     45 CA        -49.4757  -29.7774   13.4491 C.3       8 UNK         0.0248 
     46 CB        -49.7571  -30.9322   12.4754 C.3       8 UNK        -0.2001 
     47 N         -50.1279  -28.5512   12.9683 N.am      8 UNK        -0.4140 
     48 C         -49.9678  -27.3348   13.5126 C.2       8 UNK         0.5028 
     49 O         -49.1494  -27.0867   14.3993 O.2       8 UNK        -0.5428 
     50 CA        -50.8813  -26.2250   12.9777 C.3       7 UNK         0.0264 
     51 CB        -50.5837  -24.8398   13.5828 C.3       7 UNK        -0.1988 
     52 N         -50.7923  -26.1554   11.5214 N.am      7 UNK        -0.4454 
     53 C         -51.8350  -25.9480   10.7079 C.2       7 UNK         0.5027 
     54 O         -52.9924  -25.7925   11.1019 O.2       7 UNK        -0.5083 
     55 CA        -51.5055  -25.8769    9.2035 C.3       6 UNK         0.0844 
     56 C56       -52.7563  -25.6705    8.3050 C.3       14 UNK        -0.0967 
     57 S57       -52.3717  -26.0048    6.5507 S.3       14 UNK        -0.2604 
     58 C58       -53.1463  -27.6355    6.3014 C.3       14 UNK         0.0134 
     59 N         -50.4519  -24.8922    8.9375 N.am      6 UNK        -0.4116 
     60 C         -50.4990  -23.5737    9.1814 C.2       5 UNK         0.5034 
     61 O         -51.4394  -22.9952    9.7271 O.2       5 UNK        -0.5045 
     62 CA        -49.2951  -22.7462    8.7004 C.3       5 UNK         0.0224 
     63 CB        -48.2099  -22.6824    9.7870 C.3       5 UNK        -0.1978 
     64 N         -48.7161  -23.2463    7.4485 N.am      5 UNK        -0.4737 
     65 C         -49.3598  -23.2629    6.2692 C.2       4 UNK         0.5027 
     66 O         -50.4918  -22.8044    6.1071 O.2       4 UNK        -0.5211 
     67 CA        -48.6054  -23.8846    5.0759 C.3       4 UNK         0.0297 
     68 CB        -49.2504  -23.5608    3.7113 C.3       4 UNK        -0.1993 
     69 N         -47.1786  -23.5478    5.0801 N.am      4 UNK        -0.4486 
     70 C         -46.6328  -22.3208    5.0458 C.2       3 UNK         0.4961 
     71 O         -47.2774  -21.2887    4.8534 O.2       3 UNK        -0.5105 
     72 CA        -45.1084  -22.2241    5.2768 C.3       3 UNK         0.0299 
     73 CB        -44.7225  -20.9516    6.0611 C.3       3 UNK        -0.1972 
     74 N         -44.5107  -23.4119    5.9066 N.am      3 UNK        -0.4305 
     75 C         -44.8193  -23.9440    7.0990 C.2       2 UNK         0.5006 
     76 O         -45.6766  -23.4974    7.8633 O.2       2 UNK        -0.5106 
     77 CA        -44.0302  -25.2011    7.4904 C.3       2 UNK         0.0296 
     78 CB        -42.8587  -24.8261    8.4127 C.3       2 UNK        -0.2002 
     79 N         -44.8456  -26.2264    8.1462 N.am      2 UNK        -0.4032 
     80 C         -45.9584  -26.8031    7.6624 C.2       1 UNK         0.5000 
     81 O         -46.5123  -26.4633    6.6131 O.2       1 UNK        -0.5238 
     82 H82       -45.6753  -26.5673   12.1989 H         1 UNK         0.0889 
     83 H83       -46.9885  -27.6457   12.6880 H         1 UNK         0.0889 
     84 H84       -47.2685  -25.9066   12.5589 H         1 UNK         0.0889 
     85 H85       -45.6404  -28.2508   10.3920 H         1 UNK         0.3028 
     86 H86       -45.7596  -28.7892    8.2810 H         1 UNK         0.0864 
     87 H87       -47.8617  -28.6844    6.9225 H         1 UNK         0.0720 
     88 H88       -48.6759  -27.8644    8.2306 H         1 UNK         0.0720 
     89 H89       -49.5343  -31.9267    7.8096 H         1 UNK         0.0814 
     90 H90       -49.1514  -30.7198    6.6104 H         1 UNK         0.0814 
     91 H91       -50.7653  -28.9595    6.1503 H         1 UNK         0.1469 
     92 H92       -54.2925  -28.6288    8.5698 H         1 UNK         0.1381 
     93 H93       -51.1630  -31.3232    9.7092 H         1 UNK         0.1206 
     94 H94       -53.4088  -31.4456   10.7681 H         1 UNK         0.0813 
     95 H95       -54.6692  -30.3129   10.3275 H         1 UNK         0.0813 
     96 H96       -53.6332  -30.1139   14.1117 H         1 UNK         0.0638 
     97 H97       -54.5854  -30.9547   12.9259 H         1 UNK         0.0638 
     98 H98       -55.9703  -28.9389   12.5615 H         1 UNK         0.0568 
     99 H99       -56.7661  -27.8923   15.5542 H         1 UNK         0.3450 
    100 H100      -57.6236  -29.3118   16.0990 H         1 UNK         0.3450 
    101 H101      -54.2008  -27.6016   14.5427 H         1 UNK         0.2987 
    102 H102      -53.9951  -25.0847   13.6303 H         1 UNK         0.0766 
    103 H103      -55.8793  -23.8822   12.5526 H         1 UNK         0.0798 
    104 H104      -55.3971  -23.0610   14.0270 H         1 UNK         0.0798 
    105 H105      -56.8561  -24.0514   14.0064 H         1 UNK         0.0798 
    106 H106      -53.9447  -24.9358   15.8600 H         1 UNK         0.3198 
    107 H107      -55.3570  -24.4908   18.1964 H         1 UNK         0.0843 
    108 H108      -56.2619  -27.3926   18.5869 H         1 UNK         0.0831 
    109 H109      -57.2626  -25.9596   18.7764 H         1 UNK         0.0831 
    110 H110      -55.9324  -26.2418   19.8836 H         1 UNK         0.0831 
    111 H111      -53.8194  -26.9676   18.4233 H         1 UNK         0.3133 
    112 H112      -50.7932  -25.6218   17.2647 H         1 UNK         0.0566 
    113 H113      -49.8712  -26.1326   19.4996 H         1 UNK         0.0814 
    114 H114      -51.4908  -26.1701   20.1994 H         1 UNK         0.0814 
    115 H115      -50.8267  -24.6641   19.5820 H         1 UNK         0.0814 
    116 H116      -51.0415  -28.0439   18.5075 H         1 UNK         0.3091 
    117 H117      -50.8282  -29.8740   17.3139 H         1 UNK         0.0702 
    118 H118      -52.7136  -31.4986   16.6112 H         1 UNK         0.0785 
    119 H119      -53.7439  -30.0890   16.3578 H         1 UNK         0.0785 
    120 H120      -53.1038  -30.4325   17.9508 H         1 UNK         0.0785 
    121 H121      -51.7136  -29.3513   14.5344 H         1 UNK         0.2998 
    122 H122      -48.3992  -29.5964   13.4616 H         1 UNK         0.0697 
    123 H123      -50.8172  -31.1833   12.4348 H         1 UNK         0.0825 
    124 H124      -49.2219  -31.8333   12.7772 H         1 UNK         0.0825 
    125 H125      -49.4306  -30.6862   11.4655 H         1 UNK         0.0825 
    126 H126      -50.8247  -28.6637   12.2429 H         1 UNK         0.3029 
    127 H127      -51.8937  -26.5096   13.2732 H         1 UNK         0.0897 
    128 H128      -49.5741  -24.5051   13.3417 H         1 UNK         0.0792 
    129 H129      -50.6752  -24.8614   14.6698 H         1 UNK         0.0792 
    130 H130      -51.2832  -24.0892   13.2145 H         1 UNK         0.0792 
    131 H131      -49.8646  -26.2576   11.1124 H         1 UNK         0.3086 
    132 H132      -51.0769  -26.8507    8.9605 H         1 UNK         0.0583 
    133 H133      -53.5802  -26.3117    8.6190 H         1 UNK         0.1020 
    134 H134      -53.1341  -24.6510    8.3950 H         1 UNK         0.1020 
    135 H135      -54.2269  -27.5408    6.4194 H         1 UNK         0.0694 
    136 H136      -52.9793  -27.9520    5.2708 H         1 UNK         0.0694 
    137 H137      -49.5960  -25.2638    8.5504 H         1 UNK         0.2989 
    138 H138      -49.6536  -21.7309    8.5166 H         1 UNK         0.1055 
    139 H139      -47.7612  -23.6595    9.9683 H         1 UNK         0.0806 
    140 H140      -48.6220  -22.3303   10.7337 H         1 UNK         0.0806 
    141 H141      -47.4102  -21.9967    9.5063 H         1 UNK         0.0806 
    142 H142      -47.7559  -23.5739    7.4914 H         1 UNK         0.3061 
    143 H143      -48.6624  -24.9652    5.2174 H         1 UNK         0.0734 
    144 H144      -49.2877  -22.4873    3.5241 H         1 UNK         0.0832 
    145 H145      -48.7028  -24.0266    2.8923 H         1 UNK         0.0832 
    146 H146      -50.2749  -23.9327    3.6682 H         1 UNK         0.0832 
    147 H147      -46.5593  -24.3263    5.2662 H         1 UNK         0.3156 
    148 H148      -44.6601  -22.1495    4.2851 H         1 UNK         0.0589 
    149 H149      -43.6443  -20.8858    6.2067 H         1 UNK         0.0808 
    150 H150      -45.0297  -20.0513    5.5274 H         1 UNK         0.0808 
    151 H151      -45.1962  -20.9238    7.0431 H         1 UNK         0.0808 
    152 H152      -43.7959  -23.8707    5.3576 H         1 UNK         0.3098 
    153 H153      -43.6239  -25.6534    6.5834 H         1 UNK         0.0720 
    154 H154      -42.2138  -24.0809    7.9446 H         1 UNK         0.0791 
    155 H155      -42.2363  -25.6917    8.6404 H         1 UNK         0.0791 
    156 H156      -43.2095  -24.4053    9.3562 H         1 UNK         0.0791 
    157 H157      -44.5007  -26.5582    9.0339 H         1 UNK         0.3028 
@<TRIPOS>BOND
     1    1    2 1    
     2    1   82 1    
     3    1   83 1    
     4    1   84 1    
     5    2    3 2    
     6    2    4 am   BACKBONE|DICT|INTERRES
     7    4    5 1    
     8    4   85 1    
     9    5    6 1    
    10    5   80 1    
    11    5   86 1    
    12    6    7 1    
    13    6   87 1    
    14    6   88 1    
    15    7    8 1    
    16    8    9 1    
    17    8   89 1    
    18    8   90 1    
    19    9   10 ar   
    20    9   14 ar   
    21   10   11 ar   
    22   10   91 1    
    23   11   12 ar   
    24   11   58 1    
    25   12   13 ar   
    26   12   92 1    
    27   13   14 ar   
    28   13   15 1    
    29   14   93 1    
    30   15   16 1    
    31   15   94 1    
    32   15   95 1    
    33   16   17 1    
    34   17   18 1    
    35   17   96 1    
    36   17   97 1    
    37   18   19 1    
    38   18   22 1    
    39   18   98 1    
    40   19   20 am   BACKBONE|DICT|INTERRES
    41   19   21 2    
    42   20   99 1    
    43   20  100 1    
    44   22   23 am   BACKBONE|DICT|INTERRES
    45   22  101 1    
    46   23   24 2    
    47   23   25 1    
    48   25   26 1    
    49   25   27 1    
    50   25  102 1    
    51   26  103 1    
    52   26  104 1    
    53   26  105 1    
    54   27   28 am   BACKBONE|DICT|INTERRES
    55   27  106 1    
    56   28   29 2    
    57   28   30 1    
    58   30   31 1    
    59   30   32 1    
    60   30  107 1    
    61   31  108 1    
    62   31  109 1    
    63   31  110 1    
    64   32   33 am   BACKBONE|DICT|INTERRES
    65   32  111 1    
    66   33   34 2    
    67   33   35 1    
    68   35   36 1    
    69   35   37 1    
    70   35  112 1    
    71   36  113 1    
    72   36  114 1    
    73   36  115 1    
    74   37   38 am   BACKBONE|DICT|INTERRES
    75   37  116 1    
    76   38   39 2    
    77   38   40 1    
    78   40   41 1    
    79   40   42 1    
    80   40  117 1    
    81   41  118 1    
    82   41  119 1    
    83   41  120 1    
    84   42   43 am   BACKBONE|DICT|INTERRES
    85   42  121 1    
    86   43   44 2    
    87   43   45 1    
    88   45   46 1    
    89   45   47 1    
    90   45  122 1    
    91   46  123 1    
    92   46  124 1    
    93   46  125 1    
    94   47   48 am   BACKBONE|DICT|INTERRES
    95   47  126 1    
    96   48   49 2    
    97   48   50 1    
    98   50   51 1    
    99   50   52 1    
   100   50  127 1    
   101   51  128 1    
   102   51  129 1    
   103   51  130 1    
   104   52   53 am   BACKBONE|DICT|INTERRES
   105   52  131 1    
   106   53   54 2    
   107   53   55 1    
   108   55   56 1    
   109   55   59 1    
   110   55  132 1    
   111   56   57 1    
   112   56  133 1    
   113   56  134 1    
   114   57   58 1    
   115   58  135 1    
   116   58  136 1    
   117   59   60 am   BACKBONE|DICT|INTERRES
   118   59  137 1    
   119   60   61 2    
   120   60   62 1    
   121   62   63 1    
   122   62   64 1    
   123   62  138 1    
   124   63  139 1    
   125   63  140 1    
   126   63  141 1    
   127   64   65 am   BACKBONE|DICT|INTERRES
   128   64  142 1    
   129   65   66 2    
   130   65   67 1    
   131   67   68 1    
   132   67   69 1    
   133   67  143 1    
   134   68  144 1    
   135   68  145 1    
   136   68  146 1    
   137   69   70 am   BACKBONE|DICT|INTERRES
   138   69  147 1    
   139   70   71 2    
   140   70   72 1    
   141   72   73 1    
   142   72   74 1    
   143   72  148 1    
   144   73  149 1    
   145   73  150 1    
   146   73  151 1    
   147   74   75 am   BACKBONE|DICT|INTERRES
   148   74  152 1    
   149   75   76 2    
   150   75   77 1    
   151   77   78 1    
   152   77   79 1    
   153   77  153 1    
   154   78  154 1    
   155   78  155 1    
   156   78  156 1    
   157   79   80 am   BACKBONE|DICT|INTERRES
   158   79  157 1    
   159   80   81 2    
@<TRIPOS>SUBSTRUCTURE
     1 UNK         1 GROUP             0       ****    0 ROOT    
