@<TRIPOS>MOLECULE
3R207
157   159    1
SMALL
USER_CHARGES


@<TRIPOS>ATOM
      1 CA        -54.4333  -27.0639    4.3495 C.3       0 UNK        -0.1975 
      2 C         -52.9272  -27.2619    4.4307 C.2       0 UNK         0.4852 
      3 O         -52.2321  -27.0756    3.4312 O.2       0 UNK        -0.5216 
      4 N         -52.4178  -27.6211    5.6171 N.am      1 UNK        -0.4461 
      5 CA        -51.0164  -27.9078    5.9630 C.3       1 UNK         0.0864 
      6 C6        -50.4166  -29.0729    5.1303 C.3       14 UNK        -0.0898 
      7 S7        -49.1033  -29.9805    6.0167 S.3       14 UNK        -0.2598 
      8 C8        -49.9518  -31.5253    6.4789 C.3       14 UNK         0.0286 
      9 C9        -50.7888  -31.3642    7.7404 C.ar      14 UNK        -0.0844 
     10 C10       -50.2543  -31.7148    8.9852 C.ar      14 UNK        -0.0881 
     11 C11       -51.0254  -31.6037   10.1460 C.ar      14 UNK        -0.0643 
     12 C12       -52.3329  -31.1201   10.0569 C.ar      14 UNK        -0.0930 
     13 C13       -52.8770  -30.7570    8.8221 C.ar      14 UNK        -0.0827 
     14 C14       -52.1045  -30.8952    7.6646 C.ar      14 UNK        -0.1249 
     15 C15       -54.3112  -30.2499    8.7466 C.3       14 UNK         0.0141 
     16 S16       -54.4584  -28.5840    8.0206 S.3       14 UNK        -0.2313 
     17 C17       -53.3751  -27.5406    9.0629 C.3       14 UNK        -0.0915 
     18 CA        -54.1087  -26.7451   10.1742 C.3       13 UNK         0.0968 
     19 C         -55.2049  -25.7817    9.6298 C.2       13 UNK         0.5732 
     20 N         -56.4589  -25.8946   10.0508 N.am      13 UNK        -0.7310 
     21 O         -54.9056  -24.9080    8.8199 O.2       13 UNK        -0.5035 
     22 N         -54.5189  -27.6250   11.2776 N.am      13 UNK        -0.4233 
     23 C         -54.6748  -27.2249   12.5447 C.2       13 UNK         0.4989 
     24 O         -54.5592  -26.0530   12.9085 O.2       13 UNK        -0.4996 
     25 CA        -54.9741  -28.3031   13.5972 C.3       12 UNK         0.0216 
     26 CB        -54.7907  -29.7568   13.1064 C.3       12 UNK        -0.1964 
     27 N         -54.1007  -28.0362   14.7328 N.am      12 UNK        -0.4276 
     28 C         -54.2876  -28.4307   15.9959 C.2       12 UNK         0.5020 
     29 O         -55.2165  -29.1489   16.3680 O.2       12 UNK        -0.5489 
     30 CA        -53.2659  -27.9151   17.0213 C.3       11 UNK         0.0294 
     31 CB        -52.0454  -28.8478   17.0876 C.3       11 UNK        -0.2019 
     32 N         -52.8203  -26.5596   16.6949 N.am      11 UNK        -0.4493 
     33 C         -53.5172  -25.4451   16.9555 C.2       11 UNK         0.4932 
     34 O         -54.5872  -25.4381   17.5669 O.2       11 UNK        -0.5029 
     35 CA        -52.9142  -24.1223   16.4394 C.3       10 UNK         0.0280 
     36 CB        -53.4875  -22.8777   17.1495 C.3       10 UNK        -0.1976 
     37 N         -51.4460  -24.1099   16.4619 N.am      10 UNK        -0.4242 
     38 C         -50.6439  -24.2515   17.5308 C.2       10 UNK         0.5072 
     39 O         -51.0551  -24.3442   18.6883 O.2       10 UNK        -0.5224 
     40 CA        -49.1259  -24.3443   17.2809 C.3       9 UNK         0.0343 
     41 CB        -48.6104  -25.7407   17.6701 C.3       9 UNK        -0.2003 
     42 N         -48.7463  -24.0675   15.8924 N.am      9 UNK        -0.4272 
     43 C         -48.6184  -22.8385   15.3726 C.2       9 UNK         0.4988 
     44 O         -48.7375  -21.8027   16.0278 O.2       9 UNK        -0.5108 
     45 CA        -48.3479  -22.7437   13.8605 C.3       8 UNK         0.0248 
     46 CB        -46.8472  -22.8863   13.5653 C.3       8 UNK        -0.2001 
     47 N         -49.1030  -23.7164   13.0636 N.am      8 UNK        -0.4140 
     48 C         -50.4415  -23.7766   12.9926 C.2       8 UNK         0.5028 
     49 O         -51.1963  -23.0509   13.6380 O.2       8 UNK        -0.5428 
     50 CA        -51.0398  -24.8431   12.0673 C.3       7 UNK         0.0264 
     51 CB        -50.9401  -24.4041   10.5944 C.3       7 UNK        -0.1988 
     52 N         -50.3644  -26.1256   12.2422 N.am      7 UNK        -0.4454 
     53 C         -50.6220  -26.9981   13.2272 C.2       7 UNK         0.5027 
     54 O         -51.4986  -26.8405   14.0796 O.2       7 UNK        -0.5083 
     55 CA        -49.7414  -28.2643   13.2657 C.3       6 UNK         0.0844 
     56 C56       -50.3269  -29.3328   12.3086 C.3       14 UNK        -0.0967 
     57 S57       -49.2833  -30.8237   12.1716 S.3       14 UNK        -0.2604 
     58 C58       -50.4613  -32.0331   11.4940 C.3       14 UNK         0.0134 
     59 N         -48.3343  -27.9759   12.9726 N.am      6 UNK        -0.4116 
     60 C         -47.5375  -27.1453   13.6575 C.2       5 UNK         0.5034 
     61 O         -47.8870  -26.5161   14.6545 O.2       5 UNK        -0.5045 
     62 CA        -46.1237  -26.9302   13.0886 C.3       5 UNK         0.0224 
     63 CB        -45.1631  -28.0016   13.6281 C.3       5 UNK        -0.1978 
     64 N         -46.0553  -26.9046   11.6199 N.am      5 UNK        -0.4737 
     65 C         -46.8123  -26.1455   10.8144 C.2       4 UNK         0.5027 
     66 O         -47.7095  -25.4029   11.2215 O.2       4 UNK        -0.5211 
     67 CA        -46.5580  -26.2974    9.3052 C.3       4 UNK         0.0297 
     68 CB        -47.0518  -27.6717    8.8181 C.3       4 UNK        -0.1993 
     69 N         -47.2222  -25.2503    8.5238 N.am      4 UNK        -0.4486 
     70 C         -46.8901  -23.9495    8.5422 C.2       3 UNK         0.4961 
     71 O         -45.9162  -23.5027    9.1514 O.2       3 UNK        -0.5105 
     72 CA        -47.7759  -23.0028    7.7138 C.3       3 UNK         0.0299 
     73 CB        -47.1398  -21.6193    7.4790 C.3       3 UNK        -0.1972 
     74 N         -48.0759  -23.6320    6.4316 N.am      3 UNK        -0.4305 
     75 C         -49.2784  -23.6950    5.8509 C.2       2 UNK         0.5006 
     76 O         -50.2751  -23.0919    6.2519 O.2       2 UNK        -0.5106 
     77 CA        -49.4027  -24.6288    4.6300 C.3       2 UNK         0.0296 
     78 CB        -48.0465  -25.0559    4.0226 C.3       2 UNK        -0.2002 
     79 N         -50.2037  -25.8238    4.9211 N.am      2 UNK        -0.4032 
     80 C         -50.0958  -26.6660    5.9612 C.2       1 UNK         0.5000 
     81 O         -49.3150  -26.5010    6.9004 O.2       1 UNK        -0.5238 
     82 H82       -54.9115  -27.1530    5.3246 H         1 UNK         0.0889 
     83 H83       -54.8730  -27.8077    3.6856 H         1 UNK         0.0889 
     84 H84       -54.6608  -26.0751    3.9524 H         1 UNK         0.0889 
     85 H85       -53.0640  -27.7478    6.3866 H         1 UNK         0.3028 
     86 H86       -51.0655  -28.2382    7.0021 H         1 UNK         0.0864 
     87 H87       -51.2003  -29.7804    4.8574 H         1 UNK         0.0720 
     88 H88       -50.0153  -28.7136    4.1808 H         1 UNK         0.0720 
     89 H89       -49.1973  -32.2979    6.6344 H         1 UNK         0.0814 
     90 H90       -50.5708  -31.8799    5.6536 H         1 UNK         0.0814 
     91 H91       -49.2404  -32.0853    9.0525 H         1 UNK         0.1469 
     92 H92       -52.9324  -31.0431   10.9516 H         1 UNK         0.1381 
     93 H93       -52.5289  -30.6323    6.7057 H         1 UNK         0.1206 
     94 H94       -54.7793  -30.2492    9.7311 H         1 UNK         0.0813 
     95 H95       -54.8936  -30.9438    8.1389 H         1 UNK         0.0813 
     96 H96       -52.8635  -26.8390    8.4023 H         1 UNK         0.0638 
     97 H97       -52.5800  -28.1460    9.4994 H         1 UNK         0.0638 
     98 H98       -53.3593  -26.0752   10.5949 H         1 UNK         0.0568 
     99 H99       -57.1568  -25.2613    9.6944 H         1 UNK         0.3450 
    100 H100      -56.7138  -26.6049   10.7169 H         1 UNK         0.3450 
    101 H101      -54.6599  -28.5948   11.0456 H         1 UNK         0.2987 
    102 H102      -56.0105  -28.1626   13.9105 H         1 UNK         0.0766 
    103 H103      -55.0276  -30.4702   13.8960 H         1 UNK         0.0798 
    104 H104      -53.7644  -29.9475   12.7953 H         1 UNK         0.0798 
    105 H105      -55.4532  -29.9884   12.2719 H         1 UNK         0.0798 
    106 H106      -53.3153  -27.4204   14.5311 H         1 UNK         0.3198 
    107 H107      -53.7453  -27.9050   18.0028 H         1 UNK         0.0843 
    108 H108      -51.5255  -28.9052   16.1308 H         1 UNK         0.0831 
    109 H109      -52.3456  -29.8615   17.3565 H         1 UNK         0.0831 
    110 H110      -51.3301  -28.5117   17.8386 H         1 UNK         0.0831 
    111 H111      -51.9933  -26.4795   16.1148 H         1 UNK         0.3133 
    112 H112      -53.1968  -24.0587   15.3875 H         1 UNK         0.0566 
    113 H113      -53.0544  -21.9605   16.7504 H         1 UNK         0.0814 
    114 H114      -54.5673  -22.8112   17.0111 H         1 UNK         0.0814 
    115 H115      -53.2985  -22.8999   18.2231 H         1 UNK         0.0814 
    116 H116      -51.0117  -23.9862   15.5546 H         1 UNK         0.3091 
    117 H117      -48.6423  -23.6120   17.9309 H         1 UNK         0.0702 
    118 H118      -47.5354  -25.8266   17.5105 H         1 UNK         0.0785 
    119 H119      -49.0989  -26.5259   17.0913 H         1 UNK         0.0785 
    120 H120      -48.7989  -25.9489   18.7241 H         1 UNK         0.0785 
    121 H121      -48.5729  -24.8787   15.3023 H         1 UNK         0.2998 
    122 H122      -48.6623  -21.7506   13.5328 H         1 UNK         0.0697 
    123 H123      -46.4581  -23.8386   13.9224 H         1 UNK         0.0825 
    124 H124      -46.2776  -22.0980   14.0593 H         1 UNK         0.0825 
    125 H125      -46.6404  -22.8170   12.4967 H         1 UNK         0.0825 
    126 H126      -48.5621  -24.3457   12.4726 H         1 UNK         0.3029 
    127 H127      -52.0948  -24.9598   12.3247 H         1 UNK         0.0897 
    128 H128      -51.3087  -25.1732    9.9165 H         1 UNK         0.0792 
    129 H129      -51.5311  -23.5045   10.4180 H         1 UNK         0.0792 
    130 H130      -49.9137  -24.1792   10.3025 H         1 UNK         0.0792 
    131 H131      -49.5561  -26.2839   11.6516 H         1 UNK         0.3086 
    132 H132      -49.7788  -28.6580   14.2833 H         1 UNK         0.0583 
    133 H133      -51.3194  -29.6314   12.6507 H         1 UNK         0.1020 
    134 H134      -50.4583  -28.9282   11.3022 H         1 UNK         0.1020 
    135 H135      -49.9549  -32.9931   11.3840 H         1 UNK         0.0694 
    136 H136      -51.2632  -32.1948   12.2162 H         1 UNK         0.0694 
    137 H137      -47.9440  -28.4575   12.1762 H         1 UNK         0.2989 
    138 H138      -45.7768  -25.9593   13.4434 H         1 UNK         0.1055 
    139 H139      -45.1818  -28.0289   14.7188 H         1 UNK         0.0806 
    140 H140      -44.1339  -27.7996   13.3306 H         1 UNK         0.0806 
    141 H141      -45.4269  -28.9987   13.2729 H         1 UNK         0.0806 
    142 H142      -45.3513  -27.4930   11.1970 H         1 UNK         0.3061 
    143 H143      -45.4829  -26.2230    9.1292 H         1 UNK         0.0734 
    144 H144      -48.1168  -27.8098    9.0114 H         1 UNK         0.0832 
    145 H145      -46.5233  -28.4869    9.3134 H         1 UNK         0.0832 
    146 H146      -46.8935  -27.7938    7.7463 H         1 UNK         0.0832 
    147 H147      -48.0403  -25.5445    7.9937 H         1 UNK         0.3156 
    148 H148      -48.6960  -22.8668    8.2862 H         1 UNK         0.0589 
    149 H149      -46.1949  -21.6974    6.9400 H         1 UNK         0.0808 
    150 H150      -46.9382  -21.1151    8.4249 H         1 UNK         0.0808 
    151 H151      -47.8020  -20.9725    6.9033 H         1 UNK         0.0808 
    152 H152      -47.3317  -24.1895    6.0351 H         1 UNK         0.3098 
    153 H153      -49.9455  -24.0662    3.8690 H         1 UNK         0.0720 
    154 H154      -47.4304  -24.1901    3.7750 H         1 UNK         0.0791 
    155 H155      -48.1961  -25.6110    3.0963 H         1 UNK         0.0791 
    156 H156      -47.4753  -25.6977    4.6949 H         1 UNK         0.0791 
    157 H157      -50.9041  -26.0705    4.2247 H         1 UNK         0.3028 
@<TRIPOS>BOND
     1    1    2 1    
     2    1   82 1    
     3    1   83 1    
     4    1   84 1    
     5    2    3 2    
     6    2    4 am   BACKBONE|DICT|INTERRES
     7    4    5 1    
     8    4   85 1    
     9    5    6 1    
    10    5   80 1    
    11    5   86 1    
    12    6    7 1    
    13    6   87 1    
    14    6   88 1    
    15    7    8 1    
    16    8    9 1    
    17    8   89 1    
    18    8   90 1    
    19    9   10 ar   
    20    9   14 ar   
    21   10   11 ar   
    22   10   91 1    
    23   11   12 ar   
    24   11   58 1    
    25   12   13 ar   
    26   12   92 1    
    27   13   14 ar   
    28   13   15 1    
    29   14   93 1    
    30   15   16 1    
    31   15   94 1    
    32   15   95 1    
    33   16   17 1    
    34   17   18 1    
    35   17   96 1    
    36   17   97 1    
    37   18   19 1    
    38   18   22 1    
    39   18   98 1    
    40   19   20 am   BACKBONE|DICT|INTERRES
    41   19   21 2    
    42   20   99 1    
    43   20  100 1    
    44   22   23 am   BACKBONE|DICT|INTERRES
    45   22  101 1    
    46   23   24 2    
    47   23   25 1    
    48   25   26 1    
    49   25   27 1    
    50   25  102 1    
    51   26  103 1    
    52   26  104 1    
    53   26  105 1    
    54   27   28 am   BACKBONE|DICT|INTERRES
    55   27  106 1    
    56   28   29 2    
    57   28   30 1    
    58   30   31 1    
    59   30   32 1    
    60   30  107 1    
    61   31  108 1    
    62   31  109 1    
    63   31  110 1    
    64   32   33 am   BACKBONE|DICT|INTERRES
    65   32  111 1    
    66   33   34 2    
    67   33   35 1    
    68   35   36 1    
    69   35   37 1    
    70   35  112 1    
    71   36  113 1    
    72   36  114 1    
    73   36  115 1    
    74   37   38 am   BACKBONE|DICT|INTERRES
    75   37  116 1    
    76   38   39 2    
    77   38   40 1    
    78   40   41 1    
    79   40   42 1    
    80   40  117 1    
    81   41  118 1    
    82   41  119 1    
    83   41  120 1    
    84   42   43 am   BACKBONE|DICT|INTERRES
    85   42  121 1    
    86   43   44 2    
    87   43   45 1    
    88   45   46 1    
    89   45   47 1    
    90   45  122 1    
    91   46  123 1    
    92   46  124 1    
    93   46  125 1    
    94   47   48 am   BACKBONE|DICT|INTERRES
    95   47  126 1    
    96   48   49 2    
    97   48   50 1    
    98   50   51 1    
    99   50   52 1    
   100   50  127 1    
   101   51  128 1    
   102   51  129 1    
   103   51  130 1    
   104   52   53 am   BACKBONE|DICT|INTERRES
   105   52  131 1    
   106   53   54 2    
   107   53   55 1    
   108   55   56 1    
   109   55   59 1    
   110   55  132 1    
   111   56   57 1    
   112   56  133 1    
   113   56  134 1    
   114   57   58 1    
   115   58  135 1    
   116   58  136 1    
   117   59   60 am   BACKBONE|DICT|INTERRES
   118   59  137 1    
   119   60   61 2    
   120   60   62 1    
   121   62   63 1    
   122   62   64 1    
   123   62  138 1    
   124   63  139 1    
   125   63  140 1    
   126   63  141 1    
   127   64   65 am   BACKBONE|DICT|INTERRES
   128   64  142 1    
   129   65   66 2    
   130   65   67 1    
   131   67   68 1    
   132   67   69 1    
   133   67  143 1    
   134   68  144 1    
   135   68  145 1    
   136   68  146 1    
   137   69   70 am   BACKBONE|DICT|INTERRES
   138   69  147 1    
   139   70   71 2    
   140   70   72 1    
   141   72   73 1    
   142   72   74 1    
   143   72  148 1    
   144   73  149 1    
   145   73  150 1    
   146   73  151 1    
   147   74   75 am   BACKBONE|DICT|INTERRES
   148   74  152 1    
   149   75   76 2    
   150   75   77 1    
   151   77   78 1    
   152   77   79 1    
   153   77  153 1    
   154   78  154 1    
   155   78  155 1    
   156   78  156 1    
   157   79   80 am   BACKBONE|DICT|INTERRES
   158   79  157 1    
   159   80   81 2    
@<TRIPOS>SUBSTRUCTURE
     1 UNK         1 GROUP             0       ****    0 ROOT    
