@<TRIPOS>MOLECULE
3R207
157   159    1
SMALL
USER_CHARGES


@<TRIPOS>ATOM
      1 CA        -47.6324  -31.0864    2.7757 C.3       0 UNK        -0.1975 
      2 C         -48.5171  -30.1964    3.6364 C.2       0 UNK         0.4852 
      3 O         -49.4945  -29.6417    3.1335 O.2       0 UNK        -0.5216 
      4 N         -48.1831  -30.0680    4.9277 N.am      1 UNK        -0.4461 
      5 CA        -48.8847  -29.2399    5.9148 C.3       1 UNK         0.0864 
      6 C6        -48.3943  -29.5463    7.3554 C.3       14 UNK        -0.0898 
      7 S7        -49.2329  -31.0104    8.0515 S.3       14 UNK        -0.2598 
      8 C8        -49.5131  -30.5092    9.7877 C.3       14 UNK         0.0286 
      9 C9        -50.8009  -29.7212   10.0329 C.ar      14 UNK        -0.0844 
     10 C10       -51.1897  -28.6697    9.1964 C.ar      14 UNK        -0.0881 
     11 C11       -52.3103  -27.8898    9.4882 C.ar      14 UNK        -0.0643 
     12 C12       -53.0790  -28.1905   10.6138 C.ar      14 UNK        -0.0930 
     13 C13       -52.7302  -29.2618   11.4417 C.ar      14 UNK        -0.0827 
     14 C14       -51.5853  -30.0123   11.1549 C.ar      14 UNK        -0.1249 
     15 C15       -53.5775  -29.5872   12.6621 C.3       14 UNK         0.0141 
     16 S16       -54.5875  -31.0869   12.4553 S.3       14 UNK        -0.2313 
     17 C17       -55.6527  -30.6987   11.0189 C.3       14 UNK        -0.0915 
     18 CA        -57.0549  -30.1148   11.3469 C.3       13 UNK         0.0968 
     19 C         -57.8919  -31.0107   12.3066 C.2       13 UNK         0.5732 
     20 N         -58.3557  -32.1590   11.8313 N.am      13 UNK        -0.7310 
     21 O         -58.1063  -30.6903   13.4751 O.2       13 UNK        -0.5035 
     22 N         -56.9756  -28.7087   11.7697 N.am      13 UNK        -0.4233 
     23 C         -58.0128  -27.8612   11.7722 C.2       13 UNK         0.4989 
     24 O         -59.1368  -28.1588   11.3624 O.2       13 UNK        -0.4996 
     25 CA        -57.7486  -26.4498   12.3281 C.3       12 UNK         0.0216 
     26 CB        -59.0262  -25.5905   12.4015 C.3       12 UNK        -0.1964 
     27 N         -57.1488  -26.5203   13.6622 N.am      12 UNK        -0.4276 
     28 C         -55.8390  -26.4431   13.9164 C.2       12 UNK         0.5020 
     29 O         -54.9759  -26.3149   13.0445 O.2       12 UNK        -0.5489 
     30 CA        -55.4214  -26.5652   15.3845 C.3       11 UNK         0.0294 
     31 CB        -55.3961  -28.0359   15.8406 C.3       11 UNK        -0.2019 
     32 N         -54.0959  -25.9759   15.5422 N.am      11 UNK        -0.4493 
     33 C         -53.6348  -25.3946   16.6543 C.2       11 UNK         0.4932 
     34 O         -54.2788  -25.3208   17.7030 O.2       11 UNK        -0.5029 
     35 CA        -52.2193  -24.7933   16.5682 C.3       10 UNK         0.0280 
     36 CB        -51.6972  -24.2717   17.9240 C.3       10 UNK        -0.1976 
     37 N         -51.2480  -25.7059   15.9562 N.am      10 UNK        -0.4242 
     38 C         -50.8734  -26.9190   16.3920 C.2       10 UNK         0.5072 
     39 O         -51.3435  -27.4811   17.3821 O.2       10 UNK        -0.5224 
     40 CA        -49.7554  -27.6173   15.5975 C.3       9 UNK         0.0343 
     41 CB        -50.3328  -28.3708   14.3894 C.3       9 UNK        -0.2003 
     42 N         -48.7130  -26.6891   15.1511 N.am      9 UNK        -0.4272 
     43 C         -47.8611  -26.0541   15.9710 C.2       9 UNK         0.4988 
     44 O         -47.8142  -26.2377   17.1881 O.2       9 UNK        -0.5108 
     45 CA        -46.9016  -25.0349   15.3325 C.3       8 UNK         0.0248 
     46 CB        -45.6844  -25.7455   14.7201 C.3       8 UNK        -0.2001 
     47 N         -47.5537  -24.1945   14.3243 N.am      8 UNK        -0.4140 
     48 C         -48.5117  -23.2951   14.5957 C.2       8 UNK         0.5028 
     49 O         -48.8943  -23.0224   15.7336 O.2       8 UNK        -0.5428 
     50 CA        -49.1775  -22.5932   13.3998 C.3       7 UNK         0.0264 
     51 CB        -48.3465  -21.3836   12.9435 C.3       7 UNK        -0.1988 
     52 N         -49.4144  -23.4857   12.2629 N.am      7 UNK        -0.4454 
     53 C         -50.2252  -24.5553   12.2841 C.2       7 UNK         0.5027 
     54 O         -50.8900  -24.8914   13.2646 O.2       7 UNK        -0.5083 
     55 CA        -50.2682  -25.4124   11.0025 C.3       6 UNK         0.0844 
     56 C56       -51.1944  -24.7326    9.9588 C.3       14 UNK        -0.0967 
     57 S57       -51.2822  -25.5738    8.3457 S.3       14 UNK        -0.2604 
     58 C58       -52.6784  -26.7217    8.5841 C.3       14 UNK         0.0134 
     59 N         -48.9113  -25.7072   10.5172 N.am      6 UNK        -0.4116 
     60 C         -47.9855  -26.3708   11.2311 C.2       5 UNK         0.5034 
     61 O         -48.2087  -26.8948   12.3215 O.2       5 UNK        -0.5045 
     62 CA        -46.5452  -26.3902   10.6962 C.3       5 UNK         0.0224 
     63 CB        -46.2904  -27.5834    9.7638 C.3       5 UNK        -0.1978 
     64 N         -46.1972  -25.1387   10.0249 N.am      5 UNK        -0.4737 
     65 C         -45.9258  -23.9956   10.6689 C.2       4 UNK         0.5027 
     66 O         -45.8863  -23.8994   11.8947 O.2       4 UNK        -0.5211 
     67 CA        -45.6986  -22.7431    9.8044 C.3       4 UNK         0.0297 
     68 CB        -44.2271  -22.6472    9.3727 C.3       4 UNK        -0.1993 
     69 N         -46.5610  -22.7042    8.6204 N.am      4 UNK        -0.4486 
     70 C         -47.8963  -22.5980    8.6625 C.2       3 UNK         0.4961 
     71 O         -48.5373  -22.4591    9.7043 O.2       3 UNK        -0.5105 
     72 CA        -48.6490  -22.7157    7.3241 C.3       3 UNK         0.0299 
     73 CB        -48.7925  -21.3332    6.6689 C.3       3 UNK        -0.1972 
     74 N         -48.0583  -23.6576    6.3613 N.am      3 UNK        -0.4305 
     75 C         -47.7979  -24.9507    6.6032 C.2       2 UNK         0.5006 
     76 O         -47.9228  -25.4769    7.7101 O.2       2 UNK        -0.5106 
     77 CA        -47.2493  -25.7804    5.4279 C.3       2 UNK         0.0296 
     78 CB        -45.7266  -25.5969    5.3169 C.3       2 UNK        -0.2002 
     79 N         -47.5436  -27.2097    5.5788 N.am      2 UNK        -0.4032 
     80 C         -48.7771  -27.7375    5.5811 C.2       1 UNK         0.5000 
     81 O         -49.7986  -27.0972    5.3246 O.2       1 UNK        -0.5238 
     82 H82       -46.8113  -31.5208    3.3457 H         1 UNK         0.0889 
     83 H83       -47.2070  -30.5103    1.9544 H         1 UNK         0.0889 
     84 H84       -48.2190  -31.9014    2.3525 H         1 UNK         0.0889 
     85 H85       -47.3811  -30.5738    5.2757 H         1 UNK         0.3028 
     86 H86       -49.9477  -29.4853    5.8523 H         1 UNK         0.0864 
     87 H87       -47.3169  -29.7190    7.3761 H         1 UNK         0.0720 
     88 H88       -48.5553  -28.6994    8.0213 H         1 UNK         0.0720 
     89 H89       -48.6652  -29.9237   10.1446 H         1 UNK         0.0814 
     90 H90       -49.5212  -31.4197   10.3888 H         1 UNK         0.0814 
     91 H91       -50.6190  -28.4199    8.3184 H         1 UNK         0.1469 
     92 H92       -53.9489  -27.5911   10.8455 H         1 UNK         0.1381 
     93 H93       -51.3040  -30.8210   11.8157 H         1 UNK         0.1206 
     94 H94       -52.9284  -29.7292   13.5252 H         1 UNK         0.0813 
     95 H95       -54.2288  -28.7538   12.9116 H         1 UNK         0.0813 
     96 H96       -55.7767  -31.6302   10.4646 H         1 UNK         0.0638 
     97 H97       -55.1259  -30.0380   10.3312 H         1 UNK         0.0638 
     98 H98       -57.6050  -30.1046   10.4035 H         1 UNK         0.0568 
     99 H99       -58.8915  -32.7582   12.4394 H         1 UNK         0.3450 
    100 H100      -58.1797  -32.4402   10.8795 H         1 UNK         0.3450 
    101 H101      -56.0947  -28.3984   12.1499 H         1 UNK         0.2987 
    102 H102      -57.0630  -25.9579   11.6344 H         1 UNK         0.0766 
    103 H103      -58.8083  -24.5884   12.7714 H         1 UNK         0.0798 
    104 H104      -59.7767  -26.0341   13.0570 H         1 UNK         0.0798 
    105 H105      -59.4791  -25.4769   11.4156 H         1 UNK         0.0798 
    106 H106      -57.7863  -26.6781   14.4307 H         1 UNK         0.3198 
    107 H107      -56.1421  -26.0076   15.9871 H         1 UNK         0.0843 
    108 H108      -54.6423  -28.6128   15.3052 H         1 UNK         0.0831 
    109 H109      -56.3589  -28.5216   15.6758 H         1 UNK         0.0831 
    110 H110      -55.1741  -28.1128   16.9052 H         1 UNK         0.0831 
    111 H111      -53.5469  -25.9471   14.6904 H         1 UNK         0.3133 
    112 H112      -52.2910  -23.9377   15.8951 H         1 UNK         0.0566 
    113 H113      -50.7068  -23.8278   17.8206 H         1 UNK         0.0814 
    114 H114      -52.3566  -23.5024   18.3273 H         1 UNK         0.0814 
    115 H115      -51.6319  -25.0673   18.6669 H         1 UNK         0.0814 
    116 H116      -50.8577  -25.3842   15.0725 H         1 UNK         0.3091 
    117 H117      -49.2862  -28.3497   16.2578 H         1 UNK         0.0702 
    118 H118      -49.5534  -28.8963   13.8373 H         1 UNK         0.0785 
    119 H119      -50.8388  -27.7007   13.6928 H         1 UNK         0.0785 
    120 H120      -51.0555  -29.1175   14.7170 H         1 UNK         0.0785 
    121 H121      -48.6358  -26.5402   14.1480 H         1 UNK         0.2998 
    122 H122      -46.5415  -24.3765   16.1258 H         1 UNK         0.0697 
    123 H123      -45.9762  -26.4391   13.9320 H         1 UNK         0.0825 
    124 H124      -45.1497  -26.3211   15.4767 H         1 UNK         0.0825 
    125 H125      -44.9777  -25.0318   14.2963 H         1 UNK         0.0825 
    126 H126      -47.2307  -24.2904   13.3667 H         1 UNK         0.3029 
    127 H127      -50.1505  -22.2288   13.7364 H         1 UNK         0.0897 
    128 H128      -48.8484  -20.8361   12.1454 H         1 UNK         0.0792 
    129 H129      -48.1885  -20.6858   13.7669 H         1 UNK         0.0792 
    130 H130      -47.3646  -21.6829   12.5762 H         1 UNK         0.0792 
    131 H131      -48.9484  -23.2447   11.3904 H         1 UNK         0.3086 
    132 H132      -50.7164  -26.3700   11.2741 H         1 UNK         0.0583 
    133 H133      -52.2063  -24.6440   10.3594 H         1 UNK         0.1020 
    134 H134      -50.8675  -23.7102    9.7637 H         1 UNK         0.1020 
    135 H135      -53.5383  -26.1740    8.9727 H         1 UNK         0.0694 
    136 H136      -52.9755  -27.1154    7.6113 H         1 UNK         0.0694 
    137 H137      -48.6654  -25.3663    9.5934 H         1 UNK         0.2989 
    138 H138      -45.8852  -26.5082   11.5580 H         1 UNK         0.1055 
    139 H139      -46.5990  -28.5195   10.2306 H         1 UNK         0.0806 
    140 H140      -45.2306  -27.6751    9.5261 H         1 UNK         0.0806 
    141 H141      -46.8302  -27.4877    8.8250 H         1 UNK         0.0806 
    142 H142      -46.3272  -25.1167    9.0208 H         1 UNK         0.3061 
    143 H143      -45.9323  -21.8709   10.4188 H         1 UNK         0.0734 
    144 H144      -44.0319  -21.7236    8.8276 H         1 UNK         0.0832 
    145 H145      -43.5665  -22.6543   10.2411 H         1 UNK         0.0832 
    146 H146      -43.9355  -23.4832    8.7356 H         1 UNK         0.0832 
    147 H147      -46.1170  -22.8147    7.7206 H         1 UNK         0.3156 
    148 H148      -49.6507  -23.0837    7.5528 H         1 UNK         0.0589 
    149 H149      -47.8266  -20.9245    6.3695 H         1 UNK         0.0808 
    150 H150      -49.4292  -21.3760    5.7849 H         1 UNK         0.0808 
    151 H151      -49.2484  -20.6205    7.3579 H         1 UNK         0.0808 
    152 H152      -47.9030  -23.3037    5.4281 H         1 UNK         0.3098 
    153 H153      -47.7196  -25.4334    4.5055 H         1 UNK         0.0720 
    154 H154      -45.3202  -26.1546    4.4728 H         1 UNK         0.0791 
    155 H155      -45.2127  -25.9320    6.2192 H         1 UNK         0.0791 
    156 H156      -45.4655  -24.5490    5.1636 H         1 UNK         0.0791 
    157 H157      -46.7627  -27.8098    5.7966 H         1 UNK         0.3028 
@<TRIPOS>BOND
     1    1    2 1    
     2    1   82 1    
     3    1   83 1    
     4    1   84 1    
     5    2    3 2    
     6    2    4 am   BACKBONE|DICT|INTERRES
     7    4    5 1    
     8    4   85 1    
     9    5    6 1    
    10    5   80 1    
    11    5   86 1    
    12    6    7 1    
    13    6   87 1    
    14    6   88 1    
    15    7    8 1    
    16    8    9 1    
    17    8   89 1    
    18    8   90 1    
    19    9   10 ar   
    20    9   14 ar   
    21   10   11 ar   
    22   10   91 1    
    23   11   12 ar   
    24   11   58 1    
    25   12   13 ar   
    26   12   92 1    
    27   13   14 ar   
    28   13   15 1    
    29   14   93 1    
    30   15   16 1    
    31   15   94 1    
    32   15   95 1    
    33   16   17 1    
    34   17   18 1    
    35   17   96 1    
    36   17   97 1    
    37   18   19 1    
    38   18   22 1    
    39   18   98 1    
    40   19   20 am   BACKBONE|DICT|INTERRES
    41   19   21 2    
    42   20   99 1    
    43   20  100 1    
    44   22   23 am   BACKBONE|DICT|INTERRES
    45   22  101 1    
    46   23   24 2    
    47   23   25 1    
    48   25   26 1    
    49   25   27 1    
    50   25  102 1    
    51   26  103 1    
    52   26  104 1    
    53   26  105 1    
    54   27   28 am   BACKBONE|DICT|INTERRES
    55   27  106 1    
    56   28   29 2    
    57   28   30 1    
    58   30   31 1    
    59   30   32 1    
    60   30  107 1    
    61   31  108 1    
    62   31  109 1    
    63   31  110 1    
    64   32   33 am   BACKBONE|DICT|INTERRES
    65   32  111 1    
    66   33   34 2    
    67   33   35 1    
    68   35   36 1    
    69   35   37 1    
    70   35  112 1    
    71   36  113 1    
    72   36  114 1    
    73   36  115 1    
    74   37   38 am   BACKBONE|DICT|INTERRES
    75   37  116 1    
    76   38   39 2    
    77   38   40 1    
    78   40   41 1    
    79   40   42 1    
    80   40  117 1    
    81   41  118 1    
    82   41  119 1    
    83   41  120 1    
    84   42   43 am   BACKBONE|DICT|INTERRES
    85   42  121 1    
    86   43   44 2    
    87   43   45 1    
    88   45   46 1    
    89   45   47 1    
    90   45  122 1    
    91   46  123 1    
    92   46  124 1    
    93   46  125 1    
    94   47   48 am   BACKBONE|DICT|INTERRES
    95   47  126 1    
    96   48   49 2    
    97   48   50 1    
    98   50   51 1    
    99   50   52 1    
   100   50  127 1    
   101   51  128 1    
   102   51  129 1    
   103   51  130 1    
   104   52   53 am   BACKBONE|DICT|INTERRES
   105   52  131 1    
   106   53   54 2    
   107   53   55 1    
   108   55   56 1    
   109   55   59 1    
   110   55  132 1    
   111   56   57 1    
   112   56  133 1    
   113   56  134 1    
   114   57   58 1    
   115   58  135 1    
   116   58  136 1    
   117   59   60 am   BACKBONE|DICT|INTERRES
   118   59  137 1    
   119   60   61 2    
   120   60   62 1    
   121   62   63 1    
   122   62   64 1    
   123   62  138 1    
   124   63  139 1    
   125   63  140 1    
   126   63  141 1    
   127   64   65 am   BACKBONE|DICT|INTERRES
   128   64  142 1    
   129   65   66 2    
   130   65   67 1    
   131   67   68 1    
   132   67   69 1    
   133   67  143 1    
   134   68  144 1    
   135   68  145 1    
   136   68  146 1    
   137   69   70 am   BACKBONE|DICT|INTERRES
   138   69  147 1    
   139   70   71 2    
   140   70   72 1    
   141   72   73 1    
   142   72   74 1    
   143   72  148 1    
   144   73  149 1    
   145   73  150 1    
   146   73  151 1    
   147   74   75 am   BACKBONE|DICT|INTERRES
   148   74  152 1    
   149   75   76 2    
   150   75   77 1    
   151   77   78 1    
   152   77   79 1    
   153   77  153 1    
   154   78  154 1    
   155   78  155 1    
   156   78  156 1    
   157   79   80 am   BACKBONE|DICT|INTERRES
   158   79  157 1    
   159   80   81 2    
@<TRIPOS>SUBSTRUCTURE
     1 UNK         1 GROUP             0       ****    0 ROOT    
