@<TRIPOS>MOLECULE
3R207
157   159    1
SMALL
USER_CHARGES


@<TRIPOS>ATOM
      1 CA        -47.4509  -32.0985    9.6836 C.3       0 UNK        -0.1975 
      2 C         -47.9033  -31.7674    8.2687 C.2       0 UNK         0.4852 
      3 O         -48.0947  -32.6768    7.4601 O.2       0 UNK        -0.5216 
      4 N         -48.0678  -30.4767    7.9645 N.am      1 UNK        -0.4461 
      5 CA        -48.4832  -29.9440    6.6688 C.3       1 UNK         0.0864 
      6 C6        -49.9789  -30.2234    6.3355 C.3       14 UNK        -0.0898 
      7 S7        -51.1838  -29.4616    7.4804 S.3       14 UNK        -0.2598 
      8 C8        -52.0425  -28.3037    6.3677 C.3       14 UNK         0.0286 
      9 C9        -53.2445  -27.6549    7.0378 C.ar      14 UNK        -0.0844 
     10 C10       -53.1563  -26.3639    7.5723 C.ar      14 UNK        -0.0881 
     11 C11       -54.2777  -25.7558    8.1484 C.ar      14 UNK        -0.0643 
     12 C12       -55.4891  -26.4547    8.1932 C.ar      14 UNK        -0.0930 
     13 C13       -55.5903  -27.7432    7.6583 C.ar      14 UNK        -0.0827 
     14 C14       -54.4631  -28.3379    7.0862 C.ar      14 UNK        -0.1249 
     15 C15       -56.9277  -28.4724    7.6350 C.3       14 UNK         0.0141 
     16 S16       -57.0586  -29.7446    8.9309 S.3       14 UNK        -0.2313 
     17 C17       -57.3631  -28.7242   10.4152 C.3       14 UNK        -0.0915 
     18 CA        -56.5568  -29.1695   11.6640 C.3       13 UNK         0.0968 
     19 C         -57.1510  -30.4374   12.3447 C.2       13 UNK         0.5732 
     20 N         -56.3798  -31.4922   12.5827 N.am      13 UNK        -0.7310 
     21 O         -58.3319  -30.4578   12.6846 O.2       13 UNK        -0.5035 
     22 N         -55.1167  -29.2574   11.3751 N.am      13 UNK        -0.4233 
     23 C         -54.1469  -28.8874   12.2159 C.2       13 UNK         0.4989 
     24 O         -54.3549  -28.3555   13.3083 O.2       13 UNK        -0.4996 
     25 CA        -52.7067  -29.1198   11.7241 C.3       12 UNK         0.0216 
     26 CB        -52.3791  -28.1420   10.5882 C.3       12 UNK        -0.1964 
     27 N         -51.7389  -28.9360   12.8053 N.am      12 UNK        -0.4276 
     28 C         -51.5005  -29.8168   13.7873 C.2       12 UNK         0.5020 
     29 O         -51.9054  -30.9803   13.7841 O.2       12 UNK        -0.5489 
     30 CA        -50.7129  -29.2862   15.0005 C.3       11 UNK         0.0294 
     31 CB        -49.1976  -29.4431   14.7919 C.3       11 UNK        -0.2019 
     32 N         -51.0391  -27.8793   15.2540 N.am      11 UNK        -0.4493 
     33 C         -52.1998  -27.4743   15.7885 C.2       11 UNK         0.4932 
     34 O         -52.9931  -28.2311   16.3527 O.2       11 UNK        -0.5029 
     35 CA        -52.5220  -25.9746   15.6452 C.3       10 UNK         0.0280 
     36 CB        -53.9492  -25.6150   16.1094 C.3       10 UNK        -0.1976 
     37 N         -51.5306  -25.1155   16.2990 N.am      10 UNK        -0.4242 
     38 C         -51.1711  -25.1347   17.5928 C.2       10 UNK         0.5072 
     39 O         -51.6710  -25.8811   18.4370 O.2       10 UNK        -0.5224 
     40 CA        -50.0777  -24.1341   18.0214 C.3       9 UNK         0.0343 
     41 CB        -49.4037  -24.5214   19.3554 C.3       9 UNK        -0.2003 
     42 N         -49.0605  -23.8844   16.9937 N.am      9 UNK        -0.4272 
     43 C         -48.2536  -24.7730   16.3979 C.2       9 UNK         0.4988 
     44 O         -48.2980  -25.9873   16.6015 O.2       9 UNK        -0.5108 
     45 CA        -47.2225  -24.1916   15.4087 C.3       8 UNK         0.0248 
     46 CB        -46.2716  -25.2710   14.8585 C.3       8 UNK        -0.2001 
     47 N         -47.8431  -23.4788   14.2860 N.am      8 UNK        -0.4140 
     48 C         -48.4555  -22.2874   14.3512 C.2       8 UNK         0.5028 
     49 O         -48.5544  -21.6290   15.3885 O.2       8 UNK        -0.5428 
     50 CA        -49.0833  -21.7398   13.0585 C.3       7 UNK         0.0264 
     51 CB        -48.0379  -20.9688   12.2369 C.3       7 UNK        -0.1988 
     52 N         -49.6960  -22.7698   12.2171 N.am      7 UNK        -0.4454 
     53 C         -50.7557  -23.5214   12.5513 C.2       7 UNK         0.5027 
     54 O         -51.3434  -23.4343   13.6307 O.2       7 UNK        -0.5083 
     55 CA        -51.1915  -24.5854   11.5210 C.3       6 UNK         0.0844 
     56 C56       -51.9455  -23.9841   10.3035 C.3       14 UNK        -0.0967 
     57 S57       -53.7502  -24.2132   10.4189 S.3       14 UNK        -0.2604 
     58 C58       -54.2129  -24.3206    8.6593 C.3       14 UNK         0.0134 
     59 N         -50.0381  -25.3736   11.0939 N.am      6 UNK        -0.4116 
     60 C         -49.4232  -26.2883   11.8495 C.2       5 UNK         0.5034 
     61 O         -49.8333  -26.6466   12.9535 O.2       5 UNK        -0.5045 
     62 CA        -48.1351  -26.9045   11.2796 C.3       5 UNK         0.0224 
     63 CB        -48.4290  -28.2579   10.6193 C.3       5 UNK        -0.1978 
     64 N         -47.4478  -26.0295   10.3203 N.am      5 UNK        -0.4737 
     65 C         -46.8384  -24.8871   10.6704 C.2       4 UNK         0.5027 
     66 O         -46.7966  -24.4674   11.8244 O.2       4 UNK        -0.5211 
     67 CA        -46.2189  -24.0422    9.5478 C.3       4 UNK         0.0297 
     68 CB        -44.9249  -24.6908    9.0305 C.3       4 UNK        -0.1993 
     69 N         -47.1292  -23.8020    8.4271 N.am      4 UNK        -0.4486 
     70 C         -48.3426  -23.2333    8.4998 C.2       3 UNK         0.4961 
     71 O         -48.8602  -22.8458    9.5456 O.2       3 UNK        -0.5105 
     72 CA        -49.1291  -23.0963    7.1834 C.3       3 UNK         0.0299 
     73 CB        -48.9422  -21.6910    6.5912 C.3       3 UNK        -0.1972 
     74 N         -48.7509  -24.1042    6.1878 N.am      3 UNK        -0.4305 
     75 C         -48.9742  -25.4172    6.3339 C.2       2 UNK         0.5006 
     76 O         -49.6287  -25.8825    7.2695 O.2       2 UNK        -0.5106 
     77 CA        -48.3537  -26.3366    5.2592 C.3       2 UNK         0.0296 
     78 CB        -46.8597  -26.0214    5.0152 C.3       2 UNK        -0.2002 
     79 N         -48.5293  -27.7684    5.5383 N.am      2 UNK        -0.4032 
     80 C         -48.0814  -28.4561    6.6011 C.2       1 UNK         0.5000 
     81 O         -47.3773  -27.9721    7.4961 O.2       1 UNK        -0.5238 
     82 H82       -48.2056  -32.7038   10.1852 H         1 UNK         0.0889 
     83 H83       -47.2837  -31.2033   10.2813 H         1 UNK         0.0889 
     84 H84       -46.5210  -32.6659    9.6572 H         1 UNK         0.0889 
     85 H85       -47.8327  -29.7498    8.6282 H         1 UNK         0.3028 
     86 H86       -47.8755  -30.4421    5.9103 H         1 UNK         0.0864 
     87 H87       -50.1588  -31.2990    6.3513 H         1 UNK         0.0720 
     88 H88       -50.2035  -29.9257    5.3106 H         1 UNK         0.0720 
     89 H89       -52.3741  -28.8373    5.4756 H         1 UNK         0.0814 
     90 H90       -51.3441  -27.5400    6.0264 H         1 UNK         0.0814 
     91 H91       -52.2191  -25.8280    7.5223 H         1 UNK         0.1469 
     92 H92       -56.3618  -25.9807    8.6208 H         1 UNK         0.1381 
     93 H93       -54.5379  -29.3309    6.6637 H         1 UNK         0.1206 
     94 H94       -57.0551  -28.9532    6.6640 H         1 UNK         0.0813 
     95 H95       -57.7559  -27.7683    7.7303 H         1 UNK         0.0813 
     96 H96       -57.1089  -27.6882   10.1925 H         1 UNK         0.0638 
     97 H97       -58.4352  -28.7179   10.6194 H         1 UNK         0.0638 
     98 H98       -56.7030  -28.3801   12.4035 H         1 UNK         0.0568 
     99 H99       -56.7779  -32.3019   13.0313 H         1 UNK         0.3450 
    100 H100      -55.4065  -31.4847   12.3252 H         1 UNK         0.3450 
    101 H101      -54.8799  -29.6598   10.4796 H         1 UNK         0.2987 
    102 H102      -52.6231  -30.1416   11.3478 H         1 UNK         0.0766 
    103 H103      -52.5539  -27.1069   10.8764 H         1 UNK         0.0798 
    104 H104      -53.0086  -28.3392    9.7217 H         1 UNK         0.0798 
    105 H105      -51.3462  -28.2347   10.2592 H         1 UNK         0.0798 
    106 H106      -51.3436  -28.0088   12.9100 H         1 UNK         0.3198 
    107 H107      -50.9994  -29.8757   15.8742 H         1 UNK         0.0843 
    108 H108      -48.6398  -29.0696   15.6511 H         1 UNK         0.0831 
    109 H109      -48.8469  -28.9080   13.9097 H         1 UNK         0.0831 
    110 H110      -48.9316  -30.4928   14.6617 H         1 UNK         0.0831 
    111 H111      -50.4437  -27.1945   14.7980 H         1 UNK         0.3133 
    112 H112      -52.4659  -25.7537   14.5783 H         1 UNK         0.0566 
    113 H113      -54.1701  -24.5628   15.9308 H         1 UNK         0.0814 
    114 H114      -54.6909  -26.1995   15.5630 H         1 UNK         0.0814 
    115 H115      -54.0956  -25.8149   17.1713 H         1 UNK         0.0814 
    116 H116      -51.0663  -24.4570   15.6853 H         1 UNK         0.3091 
    117 H117      -50.5890  -23.1829   18.1759 H         1 UNK         0.0702 
    118 H118      -48.6541  -23.7868   19.6496 H         1 UNK         0.0785 
    119 H119      -48.9139  -25.4938   19.2913 H         1 UNK         0.0785 
    120 H120      -50.1338  -24.5769   20.1639 H         1 UNK         0.0785 
    121 H121      -48.9624  -22.9174   16.6887 H         1 UNK         0.2998 
    122 H122      -46.6157  -23.4764   15.9678 H         1 UNK         0.0697 
    123 H123      -45.5006  -24.8350   14.2230 H         1 UNK         0.0825 
    124 H124      -45.7627  -25.7966   15.6675 H         1 UNK         0.0825 
    125 H125      -46.8093  -26.0161   14.2713 H         1 UNK         0.0825 
    126 H126      -47.7365  -23.9117   13.3712 H         1 UNK         0.3029 
    127 H127      -49.8717  -21.0423   13.3492 H         1 UNK         0.0897 
    128 H128      -48.4890  -20.4993   11.3624 H         1 UNK         0.0792 
    129 H129      -47.5788  -20.1770   12.8305 H         1 UNK         0.0792 
    130 H130      -47.2382  -21.6234   11.8878 H         1 UNK         0.0792 
    131 H131      -49.2923  -22.8880   11.2881 H         1 UNK         0.3086 
    132 H132      -51.8621  -25.2663   12.0489 H         1 UNK         0.0583 
    133 H133      -51.7299  -22.9226   10.1628 H         1 UNK         0.1020 
    134 H134      -51.6118  -24.4636    9.3822 H         1 UNK         0.1020 
    135 H135      -55.1881  -23.8474    8.5349 H         1 UNK         0.0694 
    136 H136      -53.5224  -23.7324    8.0526 H         1 UNK         0.0694 
    137 H137      -49.6185  -25.1293   10.2081 H         1 UNK         0.2989 
    138 H138      -47.4646  -27.0776   12.1240 H         1 UNK         0.1055 
    139 H139      -47.5020  -28.7532   10.3332 H         1 UNK         0.0806 
    140 H140      -49.0429  -28.1424    9.7251 H         1 UNK         0.0806 
    141 H141      -48.9593  -28.9260   11.2998 H         1 UNK         0.0806 
    142 H142      -47.4545  -26.3133    9.3475 H         1 UNK         0.3061 
    143 H143      -45.9656  -23.0688    9.9733 H         1 UNK         0.0734 
    144 H144      -44.4156  -24.0461    8.3140 H         1 UNK         0.0832 
    145 H145      -44.2275  -24.8748    9.8492 H         1 UNK         0.0832 
    146 H146      -45.1162  -25.6487    8.5445 H         1 UNK         0.0832 
    147 H147      -46.8045  -24.0911    7.5171 H         1 UNK         0.3156 
    148 H148      -50.1877  -23.2298    7.4170 H         1 UNK         0.0589 
    149 H149      -47.9027  -21.4983    6.3226 H         1 UNK         0.0808 
    150 H150      -49.5526  -21.5513    5.6988 H         1 UNK         0.0808 
    151 H151      -49.2404  -20.9244    7.3081 H         1 UNK         0.0808 
    152 H152      -48.2406  -23.7792    5.3789 H         1 UNK         0.3098 
    153 H153      -48.8974  -26.1408    4.3339 H         1 UNK         0.0720 
    154 H154      -46.2745  -26.0858    5.9334 H         1 UNK         0.0791 
    155 H155      -46.7185  -25.0209    4.6060 H         1 UNK         0.0791 
    156 H156      -46.4237  -26.7168    4.2978 H         1 UNK         0.0791 
    157 H157      -49.1049  -28.2626    4.8724 H         1 UNK         0.3028 
@<TRIPOS>BOND
     1    1    2 1    
     2    1   82 1    
     3    1   83 1    
     4    1   84 1    
     5    2    3 2    
     6    2    4 am   BACKBONE|DICT|INTERRES
     7    4    5 1    
     8    4   85 1    
     9    5    6 1    
    10    5   80 1    
    11    5   86 1    
    12    6    7 1    
    13    6   87 1    
    14    6   88 1    
    15    7    8 1    
    16    8    9 1    
    17    8   89 1    
    18    8   90 1    
    19    9   10 ar   
    20    9   14 ar   
    21   10   11 ar   
    22   10   91 1    
    23   11   12 ar   
    24   11   58 1    
    25   12   13 ar   
    26   12   92 1    
    27   13   14 ar   
    28   13   15 1    
    29   14   93 1    
    30   15   16 1    
    31   15   94 1    
    32   15   95 1    
    33   16   17 1    
    34   17   18 1    
    35   17   96 1    
    36   17   97 1    
    37   18   19 1    
    38   18   22 1    
    39   18   98 1    
    40   19   20 am   BACKBONE|DICT|INTERRES
    41   19   21 2    
    42   20   99 1    
    43   20  100 1    
    44   22   23 am   BACKBONE|DICT|INTERRES
    45   22  101 1    
    46   23   24 2    
    47   23   25 1    
    48   25   26 1    
    49   25   27 1    
    50   25  102 1    
    51   26  103 1    
    52   26  104 1    
    53   26  105 1    
    54   27   28 am   BACKBONE|DICT|INTERRES
    55   27  106 1    
    56   28   29 2    
    57   28   30 1    
    58   30   31 1    
    59   30   32 1    
    60   30  107 1    
    61   31  108 1    
    62   31  109 1    
    63   31  110 1    
    64   32   33 am   BACKBONE|DICT|INTERRES
    65   32  111 1    
    66   33   34 2    
    67   33   35 1    
    68   35   36 1    
    69   35   37 1    
    70   35  112 1    
    71   36  113 1    
    72   36  114 1    
    73   36  115 1    
    74   37   38 am   BACKBONE|DICT|INTERRES
    75   37  116 1    
    76   38   39 2    
    77   38   40 1    
    78   40   41 1    
    79   40   42 1    
    80   40  117 1    
    81   41  118 1    
    82   41  119 1    
    83   41  120 1    
    84   42   43 am   BACKBONE|DICT|INTERRES
    85   42  121 1    
    86   43   44 2    
    87   43   45 1    
    88   45   46 1    
    89   45   47 1    
    90   45  122 1    
    91   46  123 1    
    92   46  124 1    
    93   46  125 1    
    94   47   48 am   BACKBONE|DICT|INTERRES
    95   47  126 1    
    96   48   49 2    
    97   48   50 1    
    98   50   51 1    
    99   50   52 1    
   100   50  127 1    
   101   51  128 1    
   102   51  129 1    
   103   51  130 1    
   104   52   53 am   BACKBONE|DICT|INTERRES
   105   52  131 1    
   106   53   54 2    
   107   53   55 1    
   108   55   56 1    
   109   55   59 1    
   110   55  132 1    
   111   56   57 1    
   112   56  133 1    
   113   56  134 1    
   114   57   58 1    
   115   58  135 1    
   116   58  136 1    
   117   59   60 am   BACKBONE|DICT|INTERRES
   118   59  137 1    
   119   60   61 2    
   120   60   62 1    
   121   62   63 1    
   122   62   64 1    
   123   62  138 1    
   124   63  139 1    
   125   63  140 1    
   126   63  141 1    
   127   64   65 am   BACKBONE|DICT|INTERRES
   128   64  142 1    
   129   65   66 2    
   130   65   67 1    
   131   67   68 1    
   132   67   69 1    
   133   67  143 1    
   134   68  144 1    
   135   68  145 1    
   136   68  146 1    
   137   69   70 am   BACKBONE|DICT|INTERRES
   138   69  147 1    
   139   70   71 2    
   140   70   72 1    
   141   72   73 1    
   142   72   74 1    
   143   72  148 1    
   144   73  149 1    
   145   73  150 1    
   146   73  151 1    
   147   74   75 am   BACKBONE|DICT|INTERRES
   148   74  152 1    
   149   75   76 2    
   150   75   77 1    
   151   77   78 1    
   152   77   79 1    
   153   77  153 1    
   154   78  154 1    
   155   78  155 1    
   156   78  156 1    
   157   79   80 am   BACKBONE|DICT|INTERRES
   158   79  157 1    
   159   80   81 2    
@<TRIPOS>SUBSTRUCTURE
     1 UNK         1 GROUP             0       ****    0 ROOT    
