@<TRIPOS>MOLECULE
3R207
157   159    1
SMALL
USER_CHARGES


@<TRIPOS>ATOM
      1 CA        -51.9426  -32.0234    5.5488 C.3       0 UNK        -0.1975 
      2 C         -50.8617  -31.0553    6.0048 C.2       0 UNK         0.4852 
      3 O         -51.1201  -29.8530    6.1025 O.2       0 UNK        -0.5216 
      4 N         -49.6546  -31.5687    6.2863 N.am      1 UNK        -0.4461 
      5 CA        -48.4961  -30.7881    6.7320 C.3       1 UNK         0.0864 
      6 C6        -47.3012  -31.6741    7.1710 C.3       14 UNK        -0.0898 
      7 S7        -47.7071  -32.7312    8.6060 S.3       14 UNK        -0.2598 
      8 C8        -47.1225  -31.7219   10.0134 C.3       14 UNK         0.0286 
      9 C9        -47.7870  -30.3535   10.0283 C.ar      14 UNK        -0.0844 
     10 C10       -47.0618  -29.2140    9.6610 C.ar      14 UNK        -0.0881 
     11 C11       -47.7004  -27.9766    9.5498 C.ar      14 UNK        -0.0643 
     12 C12       -49.0698  -27.8882    9.8126 C.ar      14 UNK        -0.0930 
     13 C13       -49.7986  -29.0097   10.2106 C.ar      14 UNK        -0.0827 
     14 C14       -49.1490  -30.2408   10.3300 C.ar      14 UNK        -0.1249 
     15 C15       -51.2979  -28.8929   10.4342 C.3       14 UNK         0.0141 
     16 S16       -51.7121  -27.8903   11.8994 S.3       14 UNK        -0.2313 
     17 C17       -53.4097  -27.4047   11.4421 C.3       14 UNK        -0.0915 
     18 CA        -53.4099  -26.0467   10.6774 C.3       13 UNK         0.0968 
     19 C         -54.5311  -25.9359    9.5970 C.2       13 UNK         0.5732 
     20 N         -55.1617  -24.7849    9.3993 N.am      13 UNK        -0.7310 
     21 O         -54.8001  -26.8977    8.8817 O.2       13 UNK        -0.5035 
     22 N         -53.2530  -24.8997   11.5885 N.am      13 UNK        -0.4233 
     23 C         -54.1772  -24.4335   12.4375 C.2       13 UNK         0.4989 
     24 O         -55.3384  -24.8432   12.5026 O.2       13 UNK        -0.4996 
     25 CA        -53.7318  -23.2909   13.3670 C.3       12 UNK         0.0216 
     26 CB        -54.2739  -21.9446   12.8597 C.3       12 UNK        -0.1964 
     27 N         -54.1472  -23.4915   14.7620 N.am      12 UNK        -0.4276 
     28 C         -53.8813  -24.5804   15.4960 C.2       12 UNK         0.5020 
     29 O         -53.2756  -25.5726   15.0731 O.2       12 UNK        -0.5489 
     30 CA        -54.3316  -24.5632   16.9628 C.3       11 UNK         0.0294 
     31 CB        -55.8138  -24.9572   17.0964 C.3       11 UNK        -0.2019 
     32 N         -53.4785  -25.5422   17.6145 N.am      11 UNK        -0.4493 
     33 C         -53.3027  -25.8232   18.9059 C.2       11 UNK         0.4932 
     34 O         -53.8813  -25.2430   19.8254 O.2       11 UNK        -0.5029 
     35 CA        -52.2753  -26.9377   19.1991 C.3       10 UNK         0.0280 
     36 CB        -52.5771  -27.7173   20.4968 C.3       10 UNK        -0.1976 
     37 N         -52.0714  -27.8298   18.0437 N.am      10 UNK        -0.4242 
     38 C         -52.9445  -28.7118   17.5237 C.2       10 UNK         0.5072 
     39 O         -54.0123  -29.0090   18.0609 O.2       10 UNK        -0.5224 
     40 CA        -52.6100  -29.3420   16.1528 C.3       9 UNK         0.0343 
     41 CB        -53.8006  -29.2252   15.1831 C.3       9 UNK        -0.2003 
     42 N         -51.4383  -28.7474   15.5070 N.am      9 UNK        -0.4272 
     43 C         -50.1648  -29.0792   15.7559 C.2       9 UNK         0.4988 
     44 O         -49.8327  -29.9730   16.5346 O.2       9 UNK        -0.5108 
     45 CA        -49.0721  -28.2569   15.0476 C.3       8 UNK         0.0248 
     46 CB        -48.5074  -29.0312   13.8450 C.3       8 UNK        -0.2001 
     47 N         -49.5032  -26.9251   14.6054 N.am      8 UNK        -0.4140 
     48 C         -49.8949  -25.9245   15.4090 C.2       8 UNK         0.5028 
     49 O         -50.0129  -26.0421   16.6304 O.2       8 UNK        -0.5428 
     50 CA        -50.1791  -24.5750   14.7251 C.3       7 UNK         0.0264 
     51 CB        -50.2984  -23.4073   15.7225 C.3       7 UNK        -0.1988 
     52 N         -49.1339  -24.2807   13.7453 N.am      7 UNK        -0.4454 
     53 C         -49.3204  -24.1975   12.4224 C.2       7 UNK         0.5027 
     54 O         -50.4279  -24.2227   11.8746 O.2       7 UNK        -0.5083 
     55 CA        -48.0344  -24.1868   11.5777 C.3       6 UNK         0.0844 
     56 C56       -47.3551  -25.5835   11.6767 C.3       14 UNK        -0.0967 
     57 S57       -46.0274  -25.9258   10.4713 S.3       14 UNK        -0.2604 
     58 C58       -46.9290  -26.7392    9.1093 C.3       14 UNK         0.0134 
     59 N         -48.3760  -23.7864   10.2112 N.am      6 UNK        -0.4116 
     60 C         -47.7729  -22.8068    9.5245 C.2       5 UNK         0.5034 
     61 O         -46.8051  -22.1701    9.9442 O.2       5 UNK        -0.5045 
     62 CA        -48.3267  -22.4618    8.1277 C.3       5 UNK         0.0224 
     63 CB        -47.4063  -23.0268    7.0344 C.3       5 UNK        -0.1978 
     64 N         -49.6963  -22.9267    7.8876 N.am      5 UNK        -0.4737 
     65 C         -50.7878  -22.4507    8.5025 C.2       4 UNK         0.5027 
     66 O         -50.7461  -21.5270    9.3153 O.2       4 UNK        -0.5211 
     67 CA        -52.1540  -23.0911    8.1729 C.3       4 UNK         0.0297 
     68 CB        -53.2020  -22.0183    7.8286 C.3       4 UNK        -0.1993 
     69 N         -52.1472  -24.0994    7.1048 N.am      4 UNK        -0.4486 
     70 C         -51.5896  -25.3147    7.1743 C.2       3 UNK         0.4961 
     71 O         -50.9401  -25.6993    8.1447 O.2       3 UNK        -0.5105 
     72 CA        -51.7703  -26.2607    5.9696 C.3       3 UNK         0.0299 
     73 CB        -52.3697  -25.5862    4.7142 C.3       3 UNK        -0.1972 
     74 N         -50.5261  -26.9639    5.6358 N.am      3 UNK        -0.4305 
     75 C         -49.3514  -26.4006    5.3029 C.2       2 UNK         0.5006 
     76 O         -49.1831  -25.1844    5.1988 O.2       2 UNK        -0.5106 
     77 CA        -48.1676  -27.3542    5.0616 C.3       2 UNK         0.0296 
     78 CB        -46.7948  -26.6642    5.1767 C.3       2 UNK        -0.2002 
     79 N         -48.2411  -28.4787    5.9920 N.am      2 UNK        -0.4032 
     80 C         -48.0838  -29.7642    5.6584 C.2       1 UNK         0.5000 
     81 O         -47.6893  -30.1571    4.5574 O.2       1 UNK        -0.5238 
     82 H82       -52.7918  -31.9835    6.2303 H         1 UNK         0.0889 
     83 H83       -51.5821  -33.0513    5.5152 H         1 UNK         0.0889 
     84 H84       -52.2914  -31.7525    4.5527 H         1 UNK         0.0889 
     85 H85       -49.4962  -32.5606    6.1836 H         1 UNK         0.3028 
     86 H86       -48.8374  -30.2249    7.5988 H         1 UNK         0.0864 
     87 H87       -46.9843  -32.3190    6.3494 H         1 UNK         0.0720 
     88 H88       -46.4338  -31.0610    7.4224 H         1 UNK         0.0720 
     89 H89       -46.0365  -31.6288    9.9645 H         1 UNK         0.0814 
     90 H90       -47.3452  -32.2436   10.9452 H         1 UNK         0.0814 
     91 H91       -46.0082  -29.2928    9.4296 H         1 UNK         0.1469 
     92 H92       -49.5723  -26.9368    9.7240 H         1 UNK         0.1381 
     93 H93       -49.7110  -31.1237   10.6022 H         1 UNK         0.1206 
     94 H94       -51.7559  -29.8778   10.5364 H         1 UNK         0.0813 
     95 H95       -51.7381  -28.4403    9.5437 H         1 UNK         0.0813 
     96 H96       -53.8442  -28.2136   10.8528 H         1 UNK         0.0638 
     97 H97       -54.0160  -27.3461   12.3472 H         1 UNK         0.0638 
     98 H98       -52.5055  -26.0219   10.0746 H         1 UNK         0.0568 
     99 H99       -54.9819  -23.9960    9.9970 H         1 UNK         0.3450 
    100 H100      -55.8730  -24.7314    8.6883 H         1 UNK         0.3450 
    101 H101      -52.3107  -24.5193   11.6311 H         1 UNK         0.2987 
    102 H102      -52.6426  -23.2344   13.3562 H         1 UNK         0.0766 
    103 H103      -53.9111  -21.1146   13.4663 H         1 UNK         0.0798 
    104 H104      -55.3645  -21.9191   12.8706 H         1 UNK         0.0798 
    105 H105      -53.9531  -21.7562   11.8339 H         1 UNK         0.0798 
    106 H106      -54.6727  -22.7405   15.1855 H         1 UNK         0.3198 
    107 H107      -54.1503  -23.5782   17.3971 H         1 UNK         0.0843 
    108 H108      -56.4569  -24.2456   16.5775 H         1 UNK         0.0831 
    109 H109      -56.1299  -24.9768   18.1394 H         1 UNK         0.0831 
    110 H110      -56.0058  -25.9431   16.6705 H         1 UNK         0.0831 
    111 H111      -52.9365  -26.0613   16.9308 H         1 UNK         0.3133 
    112 H112      -51.3213  -26.4285   19.3430 H         1 UNK         0.0566 
    113 H113      -51.8510  -28.5134   20.6607 H         1 UNK         0.0814 
    114 H114      -52.5348  -27.0571   21.3639 H         1 UNK         0.0814 
    115 H115      -53.5713  -28.1642   20.4838 H         1 UNK         0.0814 
    116 H116      -51.2331  -27.6313   17.5080 H         1 UNK         0.3091 
    117 H117      -52.4186  -30.4030   16.3260 H         1 UNK         0.0702 
    118 H118      -53.5746  -29.6829   14.2197 H         1 UNK         0.0785 
    119 H119      -54.0720  -28.1843   15.0022 H         1 UNK         0.0785 
    120 H120      -54.6837  -29.7285   15.5787 H         1 UNK         0.0785 
    121 H121      -51.6193  -27.9973   14.8535 H         1 UNK         0.2998 
    122 H122      -48.2637  -28.1125   15.7672 H         1 UNK         0.0697 
    123 H123      -49.2734  -29.2211   13.0935 H         1 UNK         0.0825 
    124 H124      -48.1137  -30.0002   14.1545 H         1 UNK         0.0825 
    125 H125      -47.6917  -28.4918   13.3633 H         1 UNK         0.0825 
    126 H126      -49.4948  -26.7601   13.6100 H         1 UNK         0.3029 
    127 H127      -51.1330  -24.6928   14.2163 H         1 UNK         0.0897 
    128 H128      -50.5445  -22.4765   15.2116 H         1 UNK         0.0792 
    129 H129      -51.0874  -23.5931   16.4522 H         1 UNK         0.0792 
    130 H130      -49.3714  -23.2537   16.2758 H         1 UNK         0.0792 
    131 H131      -48.1894  -24.2633   14.1066 H         1 UNK         0.3086 
    132 H132      -47.3662  -23.4454   12.0207 H         1 UNK         0.0583 
    133 H133      -46.8970  -25.6866   12.6619 H         1 UNK         0.1020 
    134 H134      -48.0893  -26.3847   11.6416 H         1 UNK         0.1020 
    135 H135      -47.6042  -26.0207    8.6430 H         1 UNK         0.0694 
    136 H136      -46.2070  -27.0196    8.3417 H         1 UNK         0.0694 
    137 H137      -49.2156  -24.2034    9.8323 H         1 UNK         0.2989 
    138 H138      -48.3257  -21.3727    8.0454 H         1 UNK         0.1055 
    139 H139      -46.3851  -22.6622    7.1530 H         1 UNK         0.0806 
    140 H140      -47.7416  -22.7331    6.0394 H         1 UNK         0.0806 
    141 H141      -47.3693  -24.1152    7.0661 H         1 UNK         0.0806 
    142 H142      -49.8097  -23.6969    7.2406 H         1 UNK         0.3061 
    143 H143      -52.4763  -23.5882    9.0886 H         1 UNK         0.0734 
    144 H144      -53.3049  -21.2926    8.6367 H         1 UNK         0.0832 
    145 H145      -52.9307  -21.4660    6.9282 H         1 UNK         0.0832 
    146 H146      -54.1865  -22.4588    7.6705 H         1 UNK         0.0832 
    147 H147      -52.6279  -23.8500    6.2526 H         1 UNK         0.3156 
    148 H148      -52.4706  -27.0304    6.2975 H         1 UNK         0.0589 
    149 H149      -51.7538  -24.7597    4.3571 H         1 UNK         0.0808 
    150 H150      -52.4634  -26.3009    3.8964 H         1 UNK         0.0808 
    151 H151      -53.3712  -25.2004    4.9083 H         1 UNK         0.0808 
    152 H152      -50.5770  -27.9761    5.7235 H         1 UNK         0.3098 
    153 H153      -48.2809  -27.7146    4.0370 H         1 UNK         0.0720 
    154 H154      -45.9819  -27.3674    4.9955 H         1 UNK         0.0791 
    155 H155      -46.6449  -26.2243    6.1611 H         1 UNK         0.0791 
    156 H156      -46.6974  -25.8624    4.4438 H         1 UNK         0.0791 
    157 H157      -48.5902  -28.2585    6.9155 H         1 UNK         0.3028 
@<TRIPOS>BOND
     1    1    2 1    
     2    1   82 1    
     3    1   83 1    
     4    1   84 1    
     5    2    3 2    
     6    2    4 am   BACKBONE|DICT|INTERRES
     7    4    5 1    
     8    4   85 1    
     9    5    6 1    
    10    5   80 1    
    11    5   86 1    
    12    6    7 1    
    13    6   87 1    
    14    6   88 1    
    15    7    8 1    
    16    8    9 1    
    17    8   89 1    
    18    8   90 1    
    19    9   10 ar   
    20    9   14 ar   
    21   10   11 ar   
    22   10   91 1    
    23   11   12 ar   
    24   11   58 1    
    25   12   13 ar   
    26   12   92 1    
    27   13   14 ar   
    28   13   15 1    
    29   14   93 1    
    30   15   16 1    
    31   15   94 1    
    32   15   95 1    
    33   16   17 1    
    34   17   18 1    
    35   17   96 1    
    36   17   97 1    
    37   18   19 1    
    38   18   22 1    
    39   18   98 1    
    40   19   20 am   BACKBONE|DICT|INTERRES
    41   19   21 2    
    42   20   99 1    
    43   20  100 1    
    44   22   23 am   BACKBONE|DICT|INTERRES
    45   22  101 1    
    46   23   24 2    
    47   23   25 1    
    48   25   26 1    
    49   25   27 1    
    50   25  102 1    
    51   26  103 1    
    52   26  104 1    
    53   26  105 1    
    54   27   28 am   BACKBONE|DICT|INTERRES
    55   27  106 1    
    56   28   29 2    
    57   28   30 1    
    58   30   31 1    
    59   30   32 1    
    60   30  107 1    
    61   31  108 1    
    62   31  109 1    
    63   31  110 1    
    64   32   33 am   BACKBONE|DICT|INTERRES
    65   32  111 1    
    66   33   34 2    
    67   33   35 1    
    68   35   36 1    
    69   35   37 1    
    70   35  112 1    
    71   36  113 1    
    72   36  114 1    
    73   36  115 1    
    74   37   38 am   BACKBONE|DICT|INTERRES
    75   37  116 1    
    76   38   39 2    
    77   38   40 1    
    78   40   41 1    
    79   40   42 1    
    80   40  117 1    
    81   41  118 1    
    82   41  119 1    
    83   41  120 1    
    84   42   43 am   BACKBONE|DICT|INTERRES
    85   42  121 1    
    86   43   44 2    
    87   43   45 1    
    88   45   46 1    
    89   45   47 1    
    90   45  122 1    
    91   46  123 1    
    92   46  124 1    
    93   46  125 1    
    94   47   48 am   BACKBONE|DICT|INTERRES
    95   47  126 1    
    96   48   49 2    
    97   48   50 1    
    98   50   51 1    
    99   50   52 1    
   100   50  127 1    
   101   51  128 1    
   102   51  129 1    
   103   51  130 1    
   104   52   53 am   BACKBONE|DICT|INTERRES
   105   52  131 1    
   106   53   54 2    
   107   53   55 1    
   108   55   56 1    
   109   55   59 1    
   110   55  132 1    
   111   56   57 1    
   112   56  133 1    
   113   56  134 1    
   114   57   58 1    
   115   58  135 1    
   116   58  136 1    
   117   59   60 am   BACKBONE|DICT|INTERRES
   118   59  137 1    
   119   60   61 2    
   120   60   62 1    
   121   62   63 1    
   122   62   64 1    
   123   62  138 1    
   124   63  139 1    
   125   63  140 1    
   126   63  141 1    
   127   64   65 am   BACKBONE|DICT|INTERRES
   128   64  142 1    
   129   65   66 2    
   130   65   67 1    
   131   67   68 1    
   132   67   69 1    
   133   67  143 1    
   134   68  144 1    
   135   68  145 1    
   136   68  146 1    
   137   69   70 am   BACKBONE|DICT|INTERRES
   138   69  147 1    
   139   70   71 2    
   140   70   72 1    
   141   72   73 1    
   142   72   74 1    
   143   72  148 1    
   144   73  149 1    
   145   73  150 1    
   146   73  151 1    
   147   74   75 am   BACKBONE|DICT|INTERRES
   148   74  152 1    
   149   75   76 2    
   150   75   77 1    
   151   77   78 1    
   152   77   79 1    
   153   77  153 1    
   154   78  154 1    
   155   78  155 1    
   156   78  156 1    
   157   79   80 am   BACKBONE|DICT|INTERRES
   158   79  157 1    
   159   80   81 2    
@<TRIPOS>SUBSTRUCTURE
     1 UNK         1 GROUP             0       ****    0 ROOT    
