@<TRIPOS>MOLECULE
3R207
157   159    1
SMALL
USER_CHARGES


@<TRIPOS>ATOM
      1 CA        -44.9609  -29.4792    6.2860 C.3       0 UNK        -0.1975 
      2 C         -46.2861  -29.2279    5.5811 C.2       0 UNK         0.4852 
      3 O         -46.3993  -28.2682    4.8173 O.2       0 UNK        -0.5216 
      4 N         -47.2841  -30.0871    5.8242 N.am      1 UNK        -0.4461 
      5 CA        -48.6513  -29.9387    5.3183 C.3       1 UNK         0.0864 
      6 C6        -49.4037  -31.2942    5.3591 C.3       14 UNK        -0.0898 
      7 S7        -51.0227  -31.2611    4.5077 S.3       14 UNK        -0.2598 
      8 C8        -52.1559  -31.9364    5.7681 C.3       14 UNK         0.0286 
      9 C9        -52.3812  -30.9940    6.9459 C.ar      14 UNK        -0.0844 
     10 C10       -51.6574  -31.1671    8.1303 C.ar      14 UNK        -0.0881 
     11 C11       -51.8737  -30.3410    9.2369 C.ar      14 UNK        -0.0643 
     12 C12       -52.8463  -29.3378    9.1462 C.ar      14 UNK        -0.0930 
     13 C13       -53.5927  -29.1601    7.9785 C.ar      14 UNK        -0.0827 
     14 C14       -53.3500  -29.9865    6.8758 C.ar      14 UNK        -0.1249 
     15 C15       -54.6788  -28.0928    7.9391 C.3       14 UNK         0.0141 
     16 S16       -53.9899  -26.4280    8.1927 S.3       14 UNK        -0.2313 
     17 C17       -55.4698  -25.4644    8.6351 C.3       14 UNK        -0.0915 
     18 CA        -55.4609  -25.0515   10.1333 C.3       13 UNK         0.0968 
     19 C         -56.5088  -23.9405   10.4360 C.2       13 UNK         0.5732 
     20 N         -57.3210  -24.0528   11.4812 N.am      13 UNK        -0.7310 
     21 O         -56.5764  -22.9424    9.7224 O.2       13 UNK        -0.5035 
     22 N         -55.5934  -26.2222   11.0203 N.am      13 UNK        -0.4233 
     23 C         -54.6965  -26.6024   11.9365 C.2       13 UNK         0.4989 
     24 O         -53.6087  -26.0498   12.1161 O.2       13 UNK        -0.4996 
     25 CA        -55.0946  -27.7964   12.8159 C.3       12 UNK         0.0216 
     26 CB        -55.1889  -29.1096   12.0095 C.3       12 UNK        -0.1964 
     27 N         -54.1263  -27.9197   13.9030 N.am      12 UNK        -0.4276 
     28 C         -54.2447  -28.6920   14.9889 C.2       12 UNK         0.5020 
     29 O         -55.2065  -29.4297   15.2091 O.2       12 UNK        -0.5489 
     30 CA        -53.1111  -28.6122   16.0213 C.3       11 UNK         0.0294 
     31 CB        -51.9318  -29.5159   15.6290 C.3       11 UNK        -0.2019 
     32 N         -52.6307  -27.2437   16.2006 N.am      11 UNK        -0.4493 
     33 C         -53.2031  -26.3381   17.0047 C.2       11 UNK         0.4932 
     34 O         -54.2223  -26.5558   17.6624 O.2       11 UNK        -0.5029 
     35 CA        -52.5030  -24.9675   17.0971 C.3       10 UNK         0.0280 
     36 CB        -52.9297  -24.1485   18.3334 C.3       10 UNK        -0.1976 
     37 N         -51.0413  -25.0744   17.0167 N.am      10 UNK        -0.4242 
     38 C         -50.2180  -25.7473   17.8377 C.2       10 UNK         0.5072 
     39 O         -50.5847  -26.3092   18.8708 O.2       10 UNK        -0.5224 
     40 CA        -48.7354  -25.8512   17.4283 C.3       9 UNK         0.0343 
     41 CB        -48.4146  -27.2877   16.9815 C.3       9 UNK        -0.2003 
     42 N         -48.3564  -24.9283   16.3551 N.am      9 UNK        -0.4272 
     43 C         -48.1766  -23.6091   16.5113 C.2       9 UNK         0.4988 
     44 O         -48.2160  -23.0361   17.6005 O.2       9 UNK        -0.5108 
     45 CA        -47.9593  -22.7823   15.2312 C.3       8 UNK         0.0248 
     46 CB        -46.4799  -22.8053   14.8189 C.3       8 UNK        -0.2001 
     47 N         -48.8017  -23.2195   14.1102 N.am      8 UNK        -0.4140 
     48 C         -50.1439  -23.1944   14.1179 C.2       8 UNK         0.5028 
     49 O         -50.8126  -22.7779   15.0626 O.2       8 UNK        -0.5428 
     50 CA        -50.8731  -23.7635   12.8930 C.3       7 UNK         0.0264 
     51 CB        -50.9660  -22.7148   11.7751 C.3       7 UNK        -0.1988 
     52 N         -50.2535  -24.9908   12.3929 N.am      7 UNK        -0.4454 
     53 C         -50.2852  -26.1683   13.0355 C.2       7 UNK         0.5027 
     54 O         -50.8755  -26.3598   14.1019 O.2       7 UNK        -0.5083 
     55 CA        -49.4606  -27.3061   12.4018 C.3       6 UNK         0.0844 
     56 C56       -50.2262  -27.9976   11.2418 C.3       14 UNK        -0.0967 
     57 S57       -51.2446  -29.3809   11.8504 S.3       14 UNK        -0.2604 
     58 C58       -51.0610  -30.6061   10.5075 C.3       14 UNK         0.0134 
     59 N         -48.1363  -26.8326   11.9896 N.am      6 UNK        -0.4116 
     60 C         -47.1784  -26.4260   12.8363 C.2       5 UNK         0.5034 
     61 O         -47.3032  -26.4190   14.0600 O.2       5 UNK        -0.5045 
     62 CA        -45.8654  -25.9106   12.2233 C.3       5 UNK         0.0224 
     63 CB        -44.8621  -27.0636   12.0618 C.3       5 UNK        -0.1978 
     64 N         -46.0371  -25.2336   10.9368 N.am      5 UNK        -0.4737 
     65 C         -46.7618  -24.1250   10.7333 C.2       4 UNK         0.5027 
     66 O         -47.3698  -23.5344   11.6278 O.2       4 UNK        -0.5211 
     67 CA        -46.8544  -23.6035    9.2843 C.3       4 UNK         0.0297 
     68 CB        -46.0626  -24.4493    8.2596 C.3       4 UNK        -0.1993 
     69 N         -48.2373  -23.4508    8.8155 N.am      4 UNK        -0.4486 
     70 C         -49.2274  -24.3534    8.8896 C.2       3 UNK         0.4961 
     71 O         -49.1515  -25.4143    9.5137 O.2       3 UNK        -0.5105 
     72 CA        -50.5433  -24.0204    8.1593 C.3       3 UNK         0.0299 
     73 CB        -50.4816  -22.7757    7.2446 C.3       3 UNK        -0.1972 
     74 N         -51.0424  -25.1860    7.4277 N.am      3 UNK        -0.4305 
     75 C         -50.4321  -25.8502    6.4368 C.2       2 UNK         0.5006 
     76 O         -49.3813  -25.4978    5.8947 O.2       2 UNK        -0.5106 
     77 CA        -51.1706  -27.1035    5.9453 C.3       2 UNK         0.0296 
     78 CB        -52.2253  -26.7386    4.8872 C.3       2 UNK        -0.2002 
     79 N         -50.2783  -28.1189    5.3947 N.am      2 UNK        -0.4032 
     80 C         -49.3946  -28.8353    6.1015 C.2       1 UNK         0.5000 
     81 O         -49.1860  -28.6927    7.3102 O.2       1 UNK        -0.5238 
     82 H82       -44.9987  -30.3619    6.9241 H         1 UNK         0.0889 
     83 H83       -44.6994  -28.6230    6.9073 H         1 UNK         0.0889 
     84 H84       -44.1674  -29.6242    5.5533 H         1 UNK         0.0889 
     85 H85       -47.1421  -30.8356    6.4870 H         1 UNK         0.3028 
     86 H86       -48.5816  -29.6273    4.2732 H         1 UNK         0.0864 
     87 H87       -49.5201  -31.6362    6.3871 H         1 UNK         0.0720 
     88 H88       -48.8028  -32.0581    4.8631 H         1 UNK         0.0720 
     89 H89       -53.1140  -32.1501    5.2920 H         1 UNK         0.0814 
     90 H90       -51.7758  -32.8987    6.1149 H         1 UNK         0.0814 
     91 H91       -50.9251  -31.9594    8.1991 H         1 UNK         0.1469 
     92 H92       -53.0406  -28.6820    9.9810 H         1 UNK         0.1381 
     93 H93       -53.9235  -29.8579    5.9680 H         1 UNK         0.1206 
     94 H94       -55.2169  -28.1148    6.9904 H         1 UNK         0.0813 
     95 H95       -55.4095  -28.3089    8.7190 H         1 UNK         0.0813 
     96 H96       -56.3742  -26.0234    8.3893 H         1 UNK         0.0638 
     97 H97       -55.4712  -24.5853    7.9883 H         1 UNK         0.0638 
     98 H98       -54.5036  -24.5631   10.3245 H         1 UNK         0.0568 
     99 H99       -57.2616  -24.8423   12.1028 H         1 UNK         0.3450 
    100 H100      -57.9871  -23.3187   11.6634 H         1 UNK         0.3450 
    101 H101      -56.4653  -26.7256   10.9462 H         1 UNK         0.2987 
    102 H102      -56.0705  -27.5709   13.2503 H         1 UNK         0.0766 
    103 H103      -55.7628  -28.9870   11.0910 H         1 UNK         0.0798 
    104 H104      -54.2053  -29.4874   11.7375 H         1 UNK         0.0798 
    105 H105      -55.6847  -29.8901   12.5864 H         1 UNK         0.0798 
    106 H106      -53.3155  -27.3183   13.7974 H         1 UNK         0.3198 
    107 H107      -53.5062  -28.9765   16.9725 H         1 UNK         0.0843 
    108 H108      -52.2670  -30.5329   15.4211 H         1 UNK         0.0831 
    109 H109      -51.1964  -29.5730   16.4317 H         1 UNK         0.0831 
    110 H110      -51.4214  -29.1494   14.7391 H         1 UNK         0.0831 
    111 H111      -51.8392  -26.9532   15.6299 H         1 UNK         0.3133 
    112 H112      -52.8129  -24.4119   16.2109 H         1 UNK         0.0566 
    113 H113      -52.4257  -23.1824   18.3602 H         1 UNK         0.0814 
    114 H114      -54.0026  -23.9530   18.3217 H         1 UNK         0.0814 
    115 H115      -52.7050  -24.6711   19.2637 H         1 UNK         0.0814 
    116 H116      -50.6312  -24.6223   16.2088 H         1 UNK         0.3091 
    117 H117      -48.1340  -25.6236   18.3108 H         1 UNK         0.0702 
    118 H118      -47.3566  -27.4027   16.7454 H         1 UNK         0.0785 
    119 H119      -48.9872  -27.5701   16.0965 H         1 UNK         0.0785 
    120 H120      -48.6512  -28.0068   17.7668 H         1 UNK         0.0785 
    121 H121      -48.2272  -25.3376   15.4339 H         1 UNK         0.2998 
    122 H122      -48.2313  -21.7488   15.4553 H         1 UNK         0.0697 
    123 H123      -46.1320  -23.8205   14.6330 H         1 UNK         0.0825 
    124 H124      -45.8513  -22.3871   15.6061 H         1 UNK         0.0825 
    125 H125      -46.3060  -22.2172   13.9175 H         1 UNK         0.0825 
    126 H126      -48.3229  -23.5115   13.2605 H         1 UNK         0.3029 
    127 H127      -51.8910  -24.0083   13.2062 H         1 UNK         0.0897 
    128 H128      -51.6629  -23.0341   11.0023 H         1 UNK         0.0792 
    129 H129      -51.3377  -21.7644   12.1609 H         1 UNK         0.0792 
    130 H130      -49.9972  -22.5224   11.3128 H         1 UNK         0.0792 
    131 H131      -49.7304  -24.9333   11.5264 H         1 UNK         0.3086 
    132 H132      -49.2795  -28.0442   13.1868 H         1 UNK         0.0583 
    133 H133      -50.8570  -27.2999   10.6857 H         1 UNK         0.1020 
    134 H134      -49.5216  -28.3917   10.5073 H         1 UNK         0.1020 
    135 H135      -50.0042  -30.6988   10.2525 H         1 UNK         0.0694 
    136 H136      -51.3653  -31.5759   10.9033 H         1 UNK         0.0694 
    137 H137      -47.9897  -26.7142   10.9953 H         1 UNK         0.2989 
    138 H138      -45.4395  -25.1872   12.9199 H         1 UNK         0.1055 
    139 H139      -43.8925  -26.7021   11.7184 H         1 UNK         0.0806 
    140 H140      -45.2145  -27.8114   11.3501 H         1 UNK         0.0806 
    141 H141      -44.6966  -27.5719   13.0130 H         1 UNK         0.0806 
    142 H142      -45.5845  -25.6552   10.1386 H         1 UNK         0.3061 
    143 H143      -46.4184  -22.6035    9.2983 H         1 UNK         0.0734 
    144 H144      -45.0048  -24.5099    8.5190 H         1 UNK         0.0832 
    145 H145      -46.4531  -25.4651    8.1783 H         1 UNK         0.0832 
    146 H146      -46.1151  -24.0042    7.2658 H         1 UNK         0.0832 
    147 H147      -48.4321  -22.5912    8.3222 H         1 UNK         0.3156 
    148 H148      -51.2848  -23.8242    8.9319 H         1 UNK         0.0589 
    149 H149      -49.7165  -22.8688    6.4727 H         1 UNK         0.0808 
    150 H150      -51.4352  -22.6154    6.7413 H         1 UNK         0.0808 
    151 H151      -50.2732  -21.8711    7.8171 H         1 UNK         0.0808 
    152 H152      -51.9028  -25.5803    7.7887 H         1 UNK         0.3098 
    153 H153      -51.6710  -27.5561    6.8014 H         1 UNK         0.0720 
    154 H154      -52.8087  -27.6118    4.5937 H         1 UNK         0.0791 
    155 H155      -51.7681  -26.3188    3.9904 H         1 UNK         0.0791 
    156 H156      -52.9282  -25.9982    5.2713 H         1 UNK         0.0791 
    157 H157      -50.3734  -28.3087    4.4083 H         1 UNK         0.3028 
@<TRIPOS>BOND
     1    1    2 1    
     2    1   82 1    
     3    1   83 1    
     4    1   84 1    
     5    2    3 2    
     6    2    4 am   BACKBONE|DICT|INTERRES
     7    4    5 1    
     8    4   85 1    
     9    5    6 1    
    10    5   80 1    
    11    5   86 1    
    12    6    7 1    
    13    6   87 1    
    14    6   88 1    
    15    7    8 1    
    16    8    9 1    
    17    8   89 1    
    18    8   90 1    
    19    9   10 ar   
    20    9   14 ar   
    21   10   11 ar   
    22   10   91 1    
    23   11   12 ar   
    24   11   58 1    
    25   12   13 ar   
    26   12   92 1    
    27   13   14 ar   
    28   13   15 1    
    29   14   93 1    
    30   15   16 1    
    31   15   94 1    
    32   15   95 1    
    33   16   17 1    
    34   17   18 1    
    35   17   96 1    
    36   17   97 1    
    37   18   19 1    
    38   18   22 1    
    39   18   98 1    
    40   19   20 am   BACKBONE|DICT|INTERRES
    41   19   21 2    
    42   20   99 1    
    43   20  100 1    
    44   22   23 am   BACKBONE|DICT|INTERRES
    45   22  101 1    
    46   23   24 2    
    47   23   25 1    
    48   25   26 1    
    49   25   27 1    
    50   25  102 1    
    51   26  103 1    
    52   26  104 1    
    53   26  105 1    
    54   27   28 am   BACKBONE|DICT|INTERRES
    55   27  106 1    
    56   28   29 2    
    57   28   30 1    
    58   30   31 1    
    59   30   32 1    
    60   30  107 1    
    61   31  108 1    
    62   31  109 1    
    63   31  110 1    
    64   32   33 am   BACKBONE|DICT|INTERRES
    65   32  111 1    
    66   33   34 2    
    67   33   35 1    
    68   35   36 1    
    69   35   37 1    
    70   35  112 1    
    71   36  113 1    
    72   36  114 1    
    73   36  115 1    
    74   37   38 am   BACKBONE|DICT|INTERRES
    75   37  116 1    
    76   38   39 2    
    77   38   40 1    
    78   40   41 1    
    79   40   42 1    
    80   40  117 1    
    81   41  118 1    
    82   41  119 1    
    83   41  120 1    
    84   42   43 am   BACKBONE|DICT|INTERRES
    85   42  121 1    
    86   43   44 2    
    87   43   45 1    
    88   45   46 1    
    89   45   47 1    
    90   45  122 1    
    91   46  123 1    
    92   46  124 1    
    93   46  125 1    
    94   47   48 am   BACKBONE|DICT|INTERRES
    95   47  126 1    
    96   48   49 2    
    97   48   50 1    
    98   50   51 1    
    99   50   52 1    
   100   50  127 1    
   101   51  128 1    
   102   51  129 1    
   103   51  130 1    
   104   52   53 am   BACKBONE|DICT|INTERRES
   105   52  131 1    
   106   53   54 2    
   107   53   55 1    
   108   55   56 1    
   109   55   59 1    
   110   55  132 1    
   111   56   57 1    
   112   56  133 1    
   113   56  134 1    
   114   57   58 1    
   115   58  135 1    
   116   58  136 1    
   117   59   60 am   BACKBONE|DICT|INTERRES
   118   59  137 1    
   119   60   61 2    
   120   60   62 1    
   121   62   63 1    
   122   62   64 1    
   123   62  138 1    
   124   63  139 1    
   125   63  140 1    
   126   63  141 1    
   127   64   65 am   BACKBONE|DICT|INTERRES
   128   64  142 1    
   129   65   66 2    
   130   65   67 1    
   131   67   68 1    
   132   67   69 1    
   133   67  143 1    
   134   68  144 1    
   135   68  145 1    
   136   68  146 1    
   137   69   70 am   BACKBONE|DICT|INTERRES
   138   69  147 1    
   139   70   71 2    
   140   70   72 1    
   141   72   73 1    
   142   72   74 1    
   143   72  148 1    
   144   73  149 1    
   145   73  150 1    
   146   73  151 1    
   147   74   75 am   BACKBONE|DICT|INTERRES
   148   74  152 1    
   149   75   76 2    
   150   75   77 1    
   151   77   78 1    
   152   77   79 1    
   153   77  153 1    
   154   78  154 1    
   155   78  155 1    
   156   78  156 1    
   157   79   80 am   BACKBONE|DICT|INTERRES
   158   79  157 1    
   159   80   81 2    
@<TRIPOS>SUBSTRUCTURE
     1 UNK         1 GROUP             0       ****    0 ROOT    
