@<TRIPOS>MOLECULE
3R207
157   159    1
SMALL
USER_CHARGES


@<TRIPOS>ATOM
      1 CA        -51.8864  -32.9736    7.8976 C.3       0 UNK        -0.1975 
      2 C         -51.1338  -31.7676    7.3538 C.2       0 UNK         0.4852 
      3 O         -50.7810  -31.7548    6.1734 O.2       0 UNK        -0.5216 
      4 N         -50.8877  -30.7660    8.2044 N.am      1 UNK        -0.4461 
      5 CA        -50.1461  -29.5400    7.8915 C.3       1 UNK         0.0864 
      6 C6        -51.0599  -28.2863    7.9581 C.3       14 UNK        -0.0898 
      7 S7        -52.2876  -28.2898    6.6073 S.3       14 UNK        -0.2598 
      8 C8        -52.6925  -26.5139    6.4439 C.3       14 UNK         0.0286 
      9 C9        -53.5340  -25.9117    7.5727 C.ar      14 UNK        -0.0844 
     10 C10       -53.6549  -24.5211    7.6446 C.ar      14 UNK        -0.0881 
     11 C11       -54.4184  -23.9157    8.6483 C.ar      14 UNK        -0.0643 
     12 C12       -55.0496  -24.7135    9.6064 C.ar      14 UNK        -0.0930 
     13 C13       -54.9592  -26.1068    9.5399 C.ar      14 UNK        -0.0827 
     14 C14       -54.2194  -26.6945    8.5098 C.ar      14 UNK        -0.1249 
     15 C15       -55.6958  -26.9728   10.5554 C.3       14 UNK         0.0141 
     16 S16       -54.5607  -27.9787   11.5658 S.3       14 UNK        -0.2313 
     17 C17       -54.3858  -29.4945   10.5482 C.3       14 UNK        -0.0915 
     18 CA        -54.1518  -30.7827   11.3806 C.3       13 UNK         0.0968 
     19 C         -52.6600  -30.9200   11.8050 C.2       13 UNK         0.5732 
     20 N         -52.3082  -30.8506   13.0826 N.am      13 UNK        -0.7310 
     21 O         -51.8044  -31.1004   10.9427 O.2       13 UNK        -0.5035 
     22 N         -55.1306  -30.8871   12.4670 N.am      13 UNK        -0.4233 
     23 C         -55.3751  -31.9654   13.2183 C.2       13 UNK         0.4989 
     24 O         -54.9287  -33.0874   12.9729 O.2       13 UNK        -0.4996 
     25 CA        -56.2641  -31.7343   14.4612 C.3       12 UNK         0.0216 
     26 CB        -55.9622  -32.7391   15.5936 C.3       12 UNK        -0.1964 
     27 N         -56.2214  -30.3512   14.9732 N.am      12 UNK        -0.4276 
     28 C         -55.1337  -29.6741   15.3743 C.2       12 UNK         0.5020 
     29 O         -53.9935  -30.1434   15.3839 O.2       12 UNK        -0.5489 
     30 CA        -55.3628  -28.2291   15.8277 C.3       11 UNK         0.0294 
     31 CB        -55.8631  -28.1871   17.2844 C.3       11 UNK        -0.2019 
     32 N         -54.1143  -27.4791   15.7037 N.am      11 UNK        -0.4493 
     33 C         -54.0093  -26.1482   15.6452 C.2       11 UNK         0.4932 
     34 O         -54.9808  -25.3910   15.6416 O.2       11 UNK        -0.5029 
     35 CA        -52.5947  -25.5406   15.6201 C.3       10 UNK         0.0280 
     36 CB        -51.8687  -25.7448   16.9647 C.3       10 UNK        -0.1976 
     37 N         -51.7529  -25.9492   14.4896 N.am      10 UNK        -0.4242 
     38 C         -51.2638  -27.1651   14.2015 C.2       10 UNK         0.5072 
     39 O         -51.5081  -28.1801   14.8526 O.2       10 UNK        -0.5224 
     40 CA        -50.2791  -27.2493   13.0214 C.3       9 UNK         0.0343 
     41 CB        -51.0043  -27.2044   11.6684 C.3       9 UNK        -0.2003 
     42 N         -49.2681  -26.1918   13.0679 N.am      9 UNK        -0.4272 
     43 C         -48.2998  -26.1093   13.9929 C.2       9 UNK         0.4988 
     44 O         -48.1322  -26.9397   14.8865 O.2       9 UNK        -0.5108 
     45 CA        -47.3538  -24.9019   13.9210 C.3       8 UNK         0.0248 
     46 CB        -46.1331  -25.1950   13.0358 C.3       8 UNK        -0.2001 
     47 N         -48.0353  -23.6984   13.4431 N.am      8 UNK        -0.4140 
     48 C         -48.6041  -22.7950   14.2518 C.2       8 UNK         0.5028 
     49 O         -48.5787  -22.8567   15.4818 O.2       8 UNK        -0.5428 
     50 CA        -49.3198  -21.6123   13.5809 C.3       7 UNK         0.0264 
     51 CB        -48.3321  -20.4601   13.3343 C.3       7 UNK        -0.1988 
     52 N         -49.9809  -21.9543   12.3205 N.am      7 UNK        -0.4454 
     53 C         -51.0314  -22.7798   12.1987 C.2       7 UNK         0.5027 
     54 O         -51.5254  -23.4145   13.1305 O.2       7 UNK        -0.5083 
     55 CA        -51.6218  -22.9218   10.7822 C.3       6 UNK         0.0844 
     56 C56       -52.5663  -21.7199   10.5001 C.3       14 UNK        -0.0967 
     57 S57       -53.0316  -21.5049    8.7472 S.3       14 UNK        -0.2604 
     58 C58       -54.6084  -22.4051    8.6615 C.3       14 UNK         0.0134 
     59 N         -50.6112  -23.0955    9.7338 N.am      6 UNK        -0.4116 
     60 C         -49.5665  -23.9333    9.7245 C.2       5 UNK         0.5034 
     61 O         -49.2209  -24.6232   10.6861 O.2       5 UNK        -0.5045 
     62 CA        -48.7510  -24.0147    8.4204 C.3       5 UNK         0.0224 
     63 CB        -49.2318  -23.0651    7.2985 C.3       5 UNK        -0.1978 
     64 N         -47.3172  -23.8349    8.6641 N.am      5 UNK        -0.4737 
     65 C         -46.7188  -22.7950    9.2671 C.2       4 UNK         0.5027 
     66 O         -47.3253  -21.8070    9.6850 O.2       4 UNK        -0.5211 
     67 CA        -45.1912  -22.8723    9.4546 C.3       4 UNK         0.0297 
     68 CB        -44.7652  -22.3222   10.8280 C.3       4 UNK        -0.1993 
     69 N         -44.6885  -24.2432    9.3003 N.am      4 UNK        -0.4486 
     70 C         -44.0611  -24.7118    8.2131 C.2       3 UNK         0.4961 
     71 O         -43.7705  -24.0230    7.2348 O.2       3 UNK        -0.5105 
     72 CA        -43.7164  -26.2132    8.2010 C.3       3 UNK         0.0299 
     73 CB        -42.3277  -26.4470    8.8176 C.3       3 UNK        -0.1972 
     74 N         -44.6992  -27.0743    8.8733 N.am      3 UNK        -0.4305 
     75 C         -45.9855  -27.2020    8.5185 C.2       2 UNK         0.5006 
     76 O         -46.5216  -26.5464    7.6208 O.2       2 UNK        -0.5106 
     77 CA        -46.8204  -28.2088    9.3187 C.3       2 UNK         0.0296 
     78 CB        -47.1172  -27.6712   10.7302 C.3       2 UNK        -0.2002 
     79 N         -48.0613  -28.4605    8.5895 N.am      2 UNK        -0.4032 
     80 C         -48.9411  -29.4347    8.8477 C.2       1 UNK         0.5000 
     81 O         -48.8109  -30.2360    9.7778 O.2       1 UNK        -0.5238 
     82 H82       -52.1216  -32.8662    8.9559 H         1 UNK         0.0889 
     83 H83       -51.2883  -33.8760    7.7747 H         1 UNK         0.0889 
     84 H84       -52.8218  -33.1070    7.3552 H         1 UNK         0.0889 
     85 H85       -51.1276  -30.8735    9.1890 H         1 UNK         0.3028 
     86 H86       -49.7236  -29.6052    6.8864 H         1 UNK         0.0864 
     87 H87       -51.5851  -28.2365    8.9130 H         1 UNK         0.0720 
     88 H88       -50.4758  -27.3679    7.8806 H         1 UNK         0.0720 
     89 H89       -53.2377  -26.3796    5.5088 H         1 UNK         0.0814 
     90 H90       -51.7632  -25.9518    6.3391 H         1 UNK         0.0814 
     91 H91       -53.1648  -23.9017    6.9055 H         1 UNK         0.1469 
     92 H92       -55.6394  -24.2500   10.3854 H         1 UNK         0.1381 
     93 H93       -54.1862  -27.7690    8.4414 H         1 UNK         0.1206 
     94 H94       -56.4178  -27.6087   10.0422 H         1 UNK         0.0813 
     95 H95       -56.2782  -26.3466   11.2327 H         1 UNK         0.0813 
     96 H96       -55.2914  -29.6234    9.9545 H         1 UNK         0.0638 
     97 H97       -53.5793  -29.3520    9.8280 H         1 UNK         0.0638 
     98 H98       -54.3349  -31.6300   10.7174 H         1 UNK         0.0568 
     99 H99       -51.3354  -30.9354   13.3243 H         1 UNK         0.3450 
    100 H100      -52.9866  -30.6526   13.8127 H         1 UNK         0.3450 
    101 H101      -55.5336  -30.0079   12.7536 H         1 UNK         0.2987 
    102 H102      -57.2894  -31.9077   14.1310 H         1 UNK         0.0766 
    103 H103      -56.6094  -32.5730   16.4548 H         1 UNK         0.0798 
    104 H104      -54.9281  -32.6665   15.9324 H         1 UNK         0.0798 
    105 H105      -56.1243  -33.7657   15.2627 H         1 UNK         0.0798 
    106 H106      -57.1136  -29.8753   15.0030 H         1 UNK         0.3198 
    107 H107      -56.1089  -27.7781   15.1697 H         1 UNK         0.0843 
    108 H108      -55.1281  -28.6085   17.9715 H         1 UNK         0.0831 
    109 H109      -56.7851  -28.7577   17.4025 H         1 UNK         0.0831 
    110 H110      -56.0744  -27.1672   17.6058 H         1 UNK         0.0831 
    111 H111      -53.2706  -28.0450   15.6029 H         1 UNK         0.3133 
    112 H112      -52.7262  -24.4647   15.4943 H         1 UNK         0.0566 
    113 H113      -50.9152  -25.2164   16.9813 H         1 UNK         0.0814 
    114 H114      -52.4672  -25.3614   17.7920 H         1 UNK         0.0814 
    115 H115      -51.6705  -26.7973   17.1693 H         1 UNK         0.0814 
    116 H116      -51.5062  -25.1808   13.8701 H         1 UNK         0.3091 
    117 H117      -49.7596  -28.2078   13.0875 H         1 UNK         0.0702 
    118 H118      -51.6637  -28.0642   11.5603 H         1 UNK         0.0785 
    119 H119      -51.6094  -26.3040   11.5545 H         1 UNK         0.0785 
    120 H120      -50.2968  -27.2393   10.8402 H         1 UNK         0.0785 
    121 H121      -49.3030  -25.5011   12.3224 H         1 UNK         0.2998 
    122 H122      -46.9803  -24.7354   14.9339 H         1 UNK         0.0697 
    123 H123      -46.3821  -25.1584   11.9760 H         1 UNK         0.0825 
    124 H124      -45.7165  -26.1798   13.2521 H         1 UNK         0.0825 
    125 H125      -45.3393  -24.4726   13.2221 H         1 UNK         0.0825 
    126 H126      -48.1536  -23.5966   12.4432 H         1 UNK         0.3029 
    127 H127      -50.0886  -21.2629   14.2738 H         1 UNK         0.0897 
    128 H128      -48.8417  -19.5741   12.9552 H         1 UNK         0.0792 
    129 H129      -47.5598  -20.7370   12.6148 H         1 UNK         0.0792 
    130 H130      -47.8291  -20.1716   14.2585 H         1 UNK         0.0792 
    131 H131      -49.6179  -21.5160   11.4847 H         1 UNK         0.3086 
    132 H132      -52.2227  -23.8334   10.7712 H         1 UNK         0.0583 
    133 H133      -53.4684  -21.8012   11.1097 H         1 UNK         0.1020 
    134 H134      -52.0965  -20.7803   10.7995 H         1 UNK         0.1020 
    135 H135      -55.2529  -22.0915    9.4841 H         1 UNK         0.0694 
    136 H136      -55.1230  -22.1145    7.7446 H         1 UNK         0.0694 
    137 H137      -50.7891  -22.5605    8.8961 H         1 UNK         0.2989 
    138 H138      -48.8744  -25.0376    8.0616 H         1 UNK         0.1055 
    139 H139      -50.2683  -23.2645    7.0223 H         1 UNK         0.0806 
    140 H140      -48.6361  -23.2001    6.3955 H         1 UNK         0.0806 
    141 H141      -49.1549  -22.0155    7.5854 H         1 UNK         0.0806 
    142 H142      -46.7368  -24.6080    8.3579 H         1 UNK         0.3061 
    143 H143      -44.7514  -22.2259    8.6924 H         1 UNK         0.0734 
    144 H144      -43.6958  -22.4488   10.9970 H         1 UNK         0.0832 
    145 H145      -44.9778  -21.2548   10.9004 H         1 UNK         0.0832 
    146 H146      -45.2987  -22.8081   11.6427 H         1 UNK         0.0832 
    147 H147      -44.8866  -24.8881   10.0512 H         1 UNK         0.3156 
    148 H148      -43.6773  -26.5256    7.1552 H         1 UNK         0.0589 
    149 H149      -42.3064  -26.1905    9.8776 H         1 UNK         0.0808 
    150 H150      -42.0170  -27.4870    8.7163 H         1 UNK         0.0808 
    151 H151      -41.5721  -25.8369    8.3203 H         1 UNK         0.0808 
    152 H152      -44.3482  -27.6504    9.6254 H         1 UNK         0.3098 
    153 H153      -46.2615  -29.1441    9.3892 H         1 UNK         0.0720 
    154 H154      -47.7204  -28.3655   11.3146 H         1 UNK         0.0791 
    155 H155      -47.6531  -26.7239   10.6869 H         1 UNK         0.0791 
    156 H156      -46.1950  -27.5133   11.2880 H         1 UNK         0.0791 
    157 H157      -48.1855  -27.8519    7.7888 H         1 UNK         0.3028 
@<TRIPOS>BOND
     1    1    2 1    
     2    1   82 1    
     3    1   83 1    
     4    1   84 1    
     5    2    3 2    
     6    2    4 am   BACKBONE|DICT|INTERRES
     7    4    5 1    
     8    4   85 1    
     9    5    6 1    
    10    5   80 1    
    11    5   86 1    
    12    6    7 1    
    13    6   87 1    
    14    6   88 1    
    15    7    8 1    
    16    8    9 1    
    17    8   89 1    
    18    8   90 1    
    19    9   10 ar   
    20    9   14 ar   
    21   10   11 ar   
    22   10   91 1    
    23   11   12 ar   
    24   11   58 1    
    25   12   13 ar   
    26   12   92 1    
    27   13   14 ar   
    28   13   15 1    
    29   14   93 1    
    30   15   16 1    
    31   15   94 1    
    32   15   95 1    
    33   16   17 1    
    34   17   18 1    
    35   17   96 1    
    36   17   97 1    
    37   18   19 1    
    38   18   22 1    
    39   18   98 1    
    40   19   20 am   BACKBONE|DICT|INTERRES
    41   19   21 2    
    42   20   99 1    
    43   20  100 1    
    44   22   23 am   BACKBONE|DICT|INTERRES
    45   22  101 1    
    46   23   24 2    
    47   23   25 1    
    48   25   26 1    
    49   25   27 1    
    50   25  102 1    
    51   26  103 1    
    52   26  104 1    
    53   26  105 1    
    54   27   28 am   BACKBONE|DICT|INTERRES
    55   27  106 1    
    56   28   29 2    
    57   28   30 1    
    58   30   31 1    
    59   30   32 1    
    60   30  107 1    
    61   31  108 1    
    62   31  109 1    
    63   31  110 1    
    64   32   33 am   BACKBONE|DICT|INTERRES
    65   32  111 1    
    66   33   34 2    
    67   33   35 1    
    68   35   36 1    
    69   35   37 1    
    70   35  112 1    
    71   36  113 1    
    72   36  114 1    
    73   36  115 1    
    74   37   38 am   BACKBONE|DICT|INTERRES
    75   37  116 1    
    76   38   39 2    
    77   38   40 1    
    78   40   41 1    
    79   40   42 1    
    80   40  117 1    
    81   41  118 1    
    82   41  119 1    
    83   41  120 1    
    84   42   43 am   BACKBONE|DICT|INTERRES
    85   42  121 1    
    86   43   44 2    
    87   43   45 1    
    88   45   46 1    
    89   45   47 1    
    90   45  122 1    
    91   46  123 1    
    92   46  124 1    
    93   46  125 1    
    94   47   48 am   BACKBONE|DICT|INTERRES
    95   47  126 1    
    96   48   49 2    
    97   48   50 1    
    98   50   51 1    
    99   50   52 1    
   100   50  127 1    
   101   51  128 1    
   102   51  129 1    
   103   51  130 1    
   104   52   53 am   BACKBONE|DICT|INTERRES
   105   52  131 1    
   106   53   54 2    
   107   53   55 1    
   108   55   56 1    
   109   55   59 1    
   110   55  132 1    
   111   56   57 1    
   112   56  133 1    
   113   56  134 1    
   114   57   58 1    
   115   58  135 1    
   116   58  136 1    
   117   59   60 am   BACKBONE|DICT|INTERRES
   118   59  137 1    
   119   60   61 2    
   120   60   62 1    
   121   62   63 1    
   122   62   64 1    
   123   62  138 1    
   124   63  139 1    
   125   63  140 1    
   126   63  141 1    
   127   64   65 am   BACKBONE|DICT|INTERRES
   128   64  142 1    
   129   65   66 2    
   130   65   67 1    
   131   67   68 1    
   132   67   69 1    
   133   67  143 1    
   134   68  144 1    
   135   68  145 1    
   136   68  146 1    
   137   69   70 am   BACKBONE|DICT|INTERRES
   138   69  147 1    
   139   70   71 2    
   140   70   72 1    
   141   72   73 1    
   142   72   74 1    
   143   72  148 1    
   144   73  149 1    
   145   73  150 1    
   146   73  151 1    
   147   74   75 am   BACKBONE|DICT|INTERRES
   148   74  152 1    
   149   75   76 2    
   150   75   77 1    
   151   77   78 1    
   152   77   79 1    
   153   77  153 1    
   154   78  154 1    
   155   78  155 1    
   156   78  156 1    
   157   79   80 am   BACKBONE|DICT|INTERRES
   158   79  157 1    
   159   80   81 2    
@<TRIPOS>SUBSTRUCTURE
     1 UNK         1 GROUP             0       ****    0 ROOT    
