@<TRIPOS>MOLECULE
3R207
157   159    1
SMALL
USER_CHARGES


@<TRIPOS>ATOM
      1 CA        -48.9371  -30.3714    5.1512 C.3       0 UNK        -0.1975 
      2 C         -49.0947  -28.8595    5.1953 C.2       0 UNK         0.4852 
      3 O         -48.3624  -28.1920    5.9239 O.2       0 UNK        -0.5216 
      4 N         -50.0240  -28.3141    4.3960 N.am      1 UNK        -0.4461 
      5 CA        -50.4436  -26.8994    4.3458 C.3       1 UNK         0.0864 
      6 C6        -51.1763  -26.4348    5.6347 C.3       14 UNK        -0.0898 
      7 S7        -52.5921  -27.4980    6.0802 S.3       14 UNK        -0.2598 
      8 C8        -52.8322  -27.0312    7.8256 C.3       14 UNK         0.0286 
      9 C9        -52.1933  -28.0052    8.8136 C.ar      14 UNK        -0.0844 
     10 C10       -50.8602  -28.4146    8.6861 C.ar      14 UNK        -0.0881 
     11 C11       -50.2932  -29.3053    9.6026 C.ar      14 UNK        -0.0643 
     12 C12       -51.0643  -29.7783   10.6682 C.ar      14 UNK        -0.0930 
     13 C13       -52.3910  -29.3642   10.8202 C.ar      14 UNK        -0.0827 
     14 C14       -52.9468  -28.4796    9.8912 C.ar      14 UNK        -0.1249 
     15 C15       -53.2120  -29.8316   12.0116 C.3       14 UNK         0.0141 
     16 S16       -54.7153  -30.7300   11.5194 S.3       14 UNK        -0.2313 
     17 C17       -55.6137  -30.7639   13.1078 C.3       14 UNK        -0.0915 
     18 CA        -56.6856  -29.6462   13.2102 C.3       13 UNK         0.0968 
     19 C         -57.5756  -29.8537   14.4642 C.2       13 UNK         0.5732 
     20 N         -57.3004  -29.2078   15.5901 N.am      13 UNK        -0.7310 
     21 O         -58.5444  -30.6078   14.4096 O.2       13 UNK        -0.5035 
     22 N         -56.0811  -28.3043   13.1574 N.am      13 UNK        -0.4233 
     23 C         -56.3758  -27.3667   12.2467 C.2       13 UNK         0.4989 
     24 O         -57.2153  -27.5217   11.3576 O.2       13 UNK        -0.4996 
     25 CA        -55.5792  -26.0442   12.2994 C.3       12 UNK         0.0216 
     26 CB        -56.3609  -24.8512   11.7095 C.3       12 UNK        -0.1964 
     27 N         -55.0407  -25.7065   13.6212 N.am      12 UNK        -0.4276 
     28 C         -55.7173  -25.4929   14.7570 C.2       12 UNK         0.5020 
     29 O         -56.9465  -25.5227   14.8421 O.2       12 UNK        -0.5489 
     30 CA        -54.8574  -25.2392   16.0144 C.3       11 UNK         0.0294 
     31 CB        -55.6855  -25.2908   17.3152 C.3       11 UNK        -0.2019 
     32 N         -53.6910  -26.1290   16.1342 N.am      11 UNK        -0.4493 
     33 C         -53.6804  -27.4707   16.0753 C.2       11 UNK         0.4932 
     34 O         -54.6753  -28.1438   15.8017 O.2       11 UNK        -0.5029 
     35 CA        -52.3519  -28.1955   16.3645 C.3       10 UNK         0.0280 
     36 CB        -52.1218  -29.3791   15.4124 C.3       10 UNK        -0.1976 
     37 N         -51.1883  -27.3088   16.3004 N.am      10 UNK        -0.4242 
     38 C         -50.6076  -26.7347   17.3616 C.2       10 UNK         0.5072 
     39 O         -50.9979  -26.8770   18.5212 O.2       10 UNK        -0.5224 
     40 CA        -49.3917  -25.8346   17.0859 C.3       9 UNK         0.0343 
     41 CB        -48.1196  -26.6835   16.9336 C.3       9 UNK        -0.2003 
     42 N         -49.5498  -24.9646   15.9161 N.am      9 UNK        -0.4272 
     43 C         -50.4905  -24.0155   15.7930 C.2       9 UNK         0.4988 
     44 O         -51.3627  -23.7982   16.6351 O.2       9 UNK        -0.5108 
     45 CA        -50.4693  -23.1772   14.5047 C.3       8 UNK         0.0248 
     46 CB        -49.3121  -22.1653   14.5251 C.3       8 UNK        -0.2001 
     47 N         -50.3839  -24.0005   13.2992 N.am      8 UNK        -0.4140 
     48 C         -51.3277  -24.8658   12.9037 C.2       8 UNK         0.5028 
     49 O         -52.3971  -25.0321   13.4873 O.2       8 UNK        -0.5428 
     50 CA        -51.0052  -25.7299   11.6773 C.3       7 UNK         0.0264 
     51 CB        -51.1242  -24.9134   10.3807 C.3       7 UNK        -0.1988 
     52 N         -49.6768  -26.3343   11.7635 N.am      7 UNK        -0.4454 
     53 C         -49.2787  -27.1748   12.7304 C.2       7 UNK         0.5027 
     54 O         -49.9947  -27.5480   13.6599 O.2       7 UNK        -0.5083 
     55 CA        -47.8083  -27.6295   12.6901 C.3       6 UNK         0.0844 
     56 C56       -47.6076  -28.8928   11.8170 C.3       14 UNK        -0.0967 
     57 S57       -47.6397  -28.5683   10.0191 S.3       14 UNK        -0.2604 
     58 C58       -48.8582  -29.7770    9.4139 C.3       14 UNK         0.0134 
     59 N         -46.9059  -26.5344   12.3229 N.am      6 UNK        -0.4116 
     60 C         -46.7026  -25.4359   13.0625 C.2       5 UNK         0.5034 
     61 O         -47.2238  -25.2351   14.1596 O.2       5 UNK        -0.5045 
     62 CA        -45.7982  -24.3582   12.4479 C.3       5 UNK         0.0224 
     63 CB        -44.3227  -24.7887   12.4867 C.3       5 UNK        -0.1978 
     64 N         -46.1752  -24.0000   11.0763 N.am      5 UNK        -0.4737 
     65 C         -47.3475  -23.4489   10.7274 C.2       4 UNK         0.5027 
     66 O         -48.2671  -23.2514   11.5199 O.2       4 UNK        -0.5211 
     67 CA        -47.5253  -23.0266    9.2598 C.3       4 UNK         0.0297 
     68 CB        -47.2477  -21.5227    9.1064 C.3       4 UNK        -0.1993 
     69 N         -46.6576  -23.7737    8.3454 N.am      4 UNK        -0.4486 
     70 C         -46.9743  -24.9622    7.8185 C.2       3 UNK         0.4961 
     71 O         -48.0442  -25.5385    8.0189 O.2       3 UNK        -0.5105 
     72 CA        -45.9055  -25.6176    6.9348 C.3       3 UNK         0.0299 
     73 CB        -45.3871  -26.9172    7.5704 C.3       3 UNK        -0.1972 
     74 N         -46.4772  -25.9218    5.6262 N.am      3 UNK        -0.4305 
     75 C         -46.2561  -25.2072    4.5125 C.2       2 UNK         0.5006 
     76 O         -45.5139  -24.2247    4.4692 O.2       2 UNK        -0.5106 
     77 CA        -46.9619  -25.6532    3.2159 C.3       2 UNK         0.0296 
     78 CB        -46.0090  -26.4921    2.3484 C.3       2 UNK        -0.2002 
     79 N         -48.1866  -26.4164    3.4558 N.am      2 UNK        -0.4032 
     80 C         -49.3194  -25.9059    3.9583 C.2       1 UNK         0.5000 
     81 O         -49.4929  -24.6959    4.1206 O.2       1 UNK        -0.5238 
     82 H82       -49.5110  -30.8175    4.3392 H         1 UNK         0.0889 
     83 H83       -49.2781  -30.8094    6.0886 H         1 UNK         0.0889 
     84 H84       -47.8895  -30.6367    5.0112 H         1 UNK         0.0889 
     85 H85       -50.5699  -28.9291    3.8080 H         1 UNK         0.3028 
     86 H86       -51.1631  -26.8401    3.5277 H         1 UNK         0.0864 
     87 H87       -50.4752  -26.3776    6.4684 H         1 UNK         0.0720 
     88 H88       -51.5693  -25.4243    5.5080 H         1 UNK         0.0720 
     89 H89       -53.9074  -26.9731    8.0019 H         1 UNK         0.0814 
     90 H90       -52.4492  -26.0258    7.9970 H         1 UNK         0.0814 
     91 H91       -50.2534  -28.0495    7.8712 H         1 UNK         0.1469 
     92 H92       -50.6287  -30.4631   11.3823 H         1 UNK         0.1381 
     93 H93       -53.9725  -28.1595   10.0146 H         1 UNK         0.1206 
     94 H94       -53.4838  -28.9561   12.6010 H         1 UNK         0.0813 
     95 H95       -52.6211  -30.4808   12.6588 H         1 UNK         0.0813 
     96 H96       -54.9051  -30.6977   13.9354 H         1 UNK         0.0638 
     97 H97       -56.0817  -31.7469   13.1886 H         1 UNK         0.0638 
     98 H98       -57.3557  -29.7758   12.3585 H         1 UNK         0.0568 
     99 H99       -57.8937  -29.3435   16.3921 H         1 UNK         0.3450 
    100 H100      -56.4509  -28.6575   15.6765 H         1 UNK         0.3450 
    101 H101      -55.4399  -28.0813   13.9097 H         1 UNK         0.2987 
    102 H102      -54.7068  -26.2050   11.6643 H         1 UNK         0.0766 
    103 H103      -55.7654  -23.9384   11.7307 H         1 UNK         0.0798 
    104 H104      -57.2841  -24.6631   12.2585 H         1 UNK         0.0798 
    105 H105      -56.6321  -25.0333   10.6689 H         1 UNK         0.0798 
    106 H106      -54.0241  -25.5909   13.6593 H         1 UNK         0.3198 
    107 H107      -54.4602  -24.2281   15.9109 H         1 UNK         0.0843 
    108 H108      -56.1358  -26.2728   17.4657 H         1 UNK         0.0831 
    109 H109      -56.4951  -24.5602   17.2948 H         1 UNK         0.0831 
    110 H110      -55.0705  -25.0661   18.1865 H         1 UNK         0.0831 
    111 H111      -52.8096  -25.6616   16.3070 H         1 UNK         0.3133 
    112 H112      -52.4460  -28.6082   17.3708 H         1 UNK         0.0566 
    113 H113      -51.9932  -29.0348   14.3890 H         1 UNK         0.0814 
    114 H114      -51.2272  -29.9376   15.6874 H         1 UNK         0.0814 
    115 H115      -52.9571  -30.0799   15.4297 H         1 UNK         0.0814 
    116 H116      -50.7844  -27.1651   15.3767 H         1 UNK         0.3091 
    117 H117      -49.2617  -25.1867   17.9552 H         1 UNK         0.0702 
    118 H118      -47.2330  -26.0558   16.8421 H         1 UNK         0.0785 
    119 H119      -48.1677  -27.3253   16.0534 H         1 UNK         0.0785 
    120 H120      -47.9719  -27.3278   17.8014 H         1 UNK         0.0785 
    121 H121      -48.8528  -25.0630   15.1819 H         1 UNK         0.2998 
    122 H122      -51.4065  -22.6186   14.4571 H         1 UNK         0.0697 
    123 H123      -48.3403  -22.6606   14.5248 H         1 UNK         0.0825 
    124 H124      -49.3590  -21.5342   15.4135 H         1 UNK         0.0825 
    125 H125      -49.3480  -21.5073   13.6566 H         1 UNK         0.0825 
    126 H126      -49.5481  -23.8919   12.7275 H         1 UNK         0.3029 
    127 H127      -51.7284  -26.5464   11.6405 H         1 UNK         0.0897 
    128 H128      -52.1633  -24.6424   10.1908 H         1 UNK         0.0792 
    129 H129      -50.7659  -25.4786    9.5207 H         1 UNK         0.0792 
    130 H130      -50.5516  -23.9874   10.4230 H         1 UNK         0.0792 
    131 H131      -49.0188  -26.0965   11.0353 H         1 UNK         0.3086 
    132 H132      -47.5512  -27.9131   13.7130 H         1 UNK         0.0583 
    133 H133      -46.6374  -29.3352   12.0482 H         1 UNK         0.1020 
    134 H134      -48.3399  -29.6588   12.0782 H         1 UNK         0.1020 
    135 H135      -48.6739  -29.9399    8.3513 H         1 UNK         0.0694 
    136 H136      -48.6969  -30.7415    9.8977 H         1 UNK         0.0694 
    137 H137      -46.4622  -26.6072   11.4191 H         1 UNK         0.2989 
    138 H138      -45.9056  -23.4615   13.0628 H         1 UNK         0.1055 
    139 H139      -44.0218  -25.0578   13.5004 H         1 UNK         0.0806 
    140 H140      -43.6662  -23.9813   12.1615 H         1 UNK         0.0806 
    141 H141      -44.1315  -25.6532   11.8498 H         1 UNK         0.0806 
    142 H142      -45.4752  -24.1268   10.3606 H         1 UNK         0.3061 
    143 H143      -48.5692  -23.2038    8.9910 H         1 UNK         0.0734 
    144 H144      -47.8996  -20.9387    9.7579 H         1 UNK         0.0832 
    145 H145      -47.4301  -21.1877    8.0851 H         1 UNK         0.0832 
    146 H146      -46.2187  -21.2702    9.3655 H         1 UNK         0.0832 
    147 H147      -45.7693  -23.3535    8.1095 H         1 UNK         0.3156 
    148 H148      -45.0569  -24.9376    6.8349 H         1 UNK         0.0589 
    149 H149      -46.1707  -27.6733    7.6291 H         1 UNK         0.0808 
    150 H150      -44.5644  -27.3380    6.9924 H         1 UNK         0.0808 
    151 H151      -45.0206  -26.7442    8.5830 H         1 UNK         0.0808 
    152 H152      -47.1577  -26.6788    5.6158 H         1 UNK         0.3098 
    153 H153      -47.2262  -24.7516    2.6591 H         1 UNK         0.0720 
    154 H154      -46.4673  -26.7554    1.3948 H         1 UNK         0.0791 
    155 H155      -45.7153  -27.4161    2.8482 H         1 UNK         0.0791 
    156 H156      -45.0959  -25.9384    2.1249 H         1 UNK         0.0791 
    157 H157      -48.1283  -27.4192    3.3549 H         1 UNK         0.3028 
@<TRIPOS>BOND
     1    1    2 1    
     2    1   82 1    
     3    1   83 1    
     4    1   84 1    
     5    2    3 2    
     6    2    4 am   BACKBONE|DICT|INTERRES
     7    4    5 1    
     8    4   85 1    
     9    5    6 1    
    10    5   80 1    
    11    5   86 1    
    12    6    7 1    
    13    6   87 1    
    14    6   88 1    
    15    7    8 1    
    16    8    9 1    
    17    8   89 1    
    18    8   90 1    
    19    9   10 ar   
    20    9   14 ar   
    21   10   11 ar   
    22   10   91 1    
    23   11   12 ar   
    24   11   58 1    
    25   12   13 ar   
    26   12   92 1    
    27   13   14 ar   
    28   13   15 1    
    29   14   93 1    
    30   15   16 1    
    31   15   94 1    
    32   15   95 1    
    33   16   17 1    
    34   17   18 1    
    35   17   96 1    
    36   17   97 1    
    37   18   19 1    
    38   18   22 1    
    39   18   98 1    
    40   19   20 am   BACKBONE|DICT|INTERRES
    41   19   21 2    
    42   20   99 1    
    43   20  100 1    
    44   22   23 am   BACKBONE|DICT|INTERRES
    45   22  101 1    
    46   23   24 2    
    47   23   25 1    
    48   25   26 1    
    49   25   27 1    
    50   25  102 1    
    51   26  103 1    
    52   26  104 1    
    53   26  105 1    
    54   27   28 am   BACKBONE|DICT|INTERRES
    55   27  106 1    
    56   28   29 2    
    57   28   30 1    
    58   30   31 1    
    59   30   32 1    
    60   30  107 1    
    61   31  108 1    
    62   31  109 1    
    63   31  110 1    
    64   32   33 am   BACKBONE|DICT|INTERRES
    65   32  111 1    
    66   33   34 2    
    67   33   35 1    
    68   35   36 1    
    69   35   37 1    
    70   35  112 1    
    71   36  113 1    
    72   36  114 1    
    73   36  115 1    
    74   37   38 am   BACKBONE|DICT|INTERRES
    75   37  116 1    
    76   38   39 2    
    77   38   40 1    
    78   40   41 1    
    79   40   42 1    
    80   40  117 1    
    81   41  118 1    
    82   41  119 1    
    83   41  120 1    
    84   42   43 am   BACKBONE|DICT|INTERRES
    85   42  121 1    
    86   43   44 2    
    87   43   45 1    
    88   45   46 1    
    89   45   47 1    
    90   45  122 1    
    91   46  123 1    
    92   46  124 1    
    93   46  125 1    
    94   47   48 am   BACKBONE|DICT|INTERRES
    95   47  126 1    
    96   48   49 2    
    97   48   50 1    
    98   50   51 1    
    99   50   52 1    
   100   50  127 1    
   101   51  128 1    
   102   51  129 1    
   103   51  130 1    
   104   52   53 am   BACKBONE|DICT|INTERRES
   105   52  131 1    
   106   53   54 2    
   107   53   55 1    
   108   55   56 1    
   109   55   59 1    
   110   55  132 1    
   111   56   57 1    
   112   56  133 1    
   113   56  134 1    
   114   57   58 1    
   115   58  135 1    
   116   58  136 1    
   117   59   60 am   BACKBONE|DICT|INTERRES
   118   59  137 1    
   119   60   61 2    
   120   60   62 1    
   121   62   63 1    
   122   62   64 1    
   123   62  138 1    
   124   63  139 1    
   125   63  140 1    
   126   63  141 1    
   127   64   65 am   BACKBONE|DICT|INTERRES
   128   64  142 1    
   129   65   66 2    
   130   65   67 1    
   131   67   68 1    
   132   67   69 1    
   133   67  143 1    
   134   68  144 1    
   135   68  145 1    
   136   68  146 1    
   137   69   70 am   BACKBONE|DICT|INTERRES
   138   69  147 1    
   139   70   71 2    
   140   70   72 1    
   141   72   73 1    
   142   72   74 1    
   143   72  148 1    
   144   73  149 1    
   145   73  150 1    
   146   73  151 1    
   147   74   75 am   BACKBONE|DICT|INTERRES
   148   74  152 1    
   149   75   76 2    
   150   75   77 1    
   151   77   78 1    
   152   77   79 1    
   153   77  153 1    
   154   78  154 1    
   155   78  155 1    
   156   78  156 1    
   157   79   80 am   BACKBONE|DICT|INTERRES
   158   79  157 1    
   159   80   81 2    
@<TRIPOS>SUBSTRUCTURE
     1 UNK         1 GROUP             0       ****    0 ROOT    
