@<TRIPOS>MOLECULE
3R207
157   159    1
SMALL
USER_CHARGES


@<TRIPOS>ATOM
      1 CA        -52.1663  -32.5004    6.5360 C.3       0 UNK        -0.1975 
      2 C         -51.3784  -31.2101    6.7009 C.2       0 UNK         0.4852 
      3 O         -51.9607  -30.1272    6.6324 O.2       0 UNK        -0.5216 
      4 N         -50.0543  -31.3174    6.8911 N.am      1 UNK        -0.4461 
      5 CA        -49.1230  -30.2129    7.1804 C.3       1 UNK         0.0864 
      6 C6        -47.6931  -30.7184    7.5042 C.3       14 UNK        -0.0898 
      7 S7        -47.6680  -31.9590    8.8462 S.3       14 UNK        -0.2598 
      8 C8        -46.9181  -31.0334   10.2348 C.3       14 UNK         0.0286 
      9 C9        -47.7035  -29.8002   10.6813 C.ar      14 UNK        -0.0844 
     10 C10       -47.0114  -28.6684   11.1275 C.ar      14 UNK        -0.0881 
     11 C11       -47.7036  -27.5247   11.5377 C.ar      14 UNK        -0.0643 
     12 C12       -49.0997  -27.5043   11.4746 C.ar      14 UNK        -0.0930 
     13 C13       -49.8031  -28.6284   11.0354 C.ar      14 UNK        -0.0827 
     14 C14       -49.1030  -29.7812   10.6736 C.ar      14 UNK        -0.1249 
     15 C15       -51.3178  -28.5971   10.9426 C.3       14 UNK         0.0141 
     16 S16       -51.8631  -27.9528    9.3360 S.3       14 UNK        -0.2313 
     17 C17       -53.6679  -27.8899    9.5964 C.3       14 UNK        -0.0915 
     18 CA        -54.1922  -26.4486    9.8344 C.3       13 UNK         0.0968 
     19 C         -55.7460  -26.4271    9.9332 C.2       13 UNK         0.5732 
     20 N         -56.3477  -26.0370   11.0522 N.am      13 UNK        -0.7310 
     21 O         -56.4227  -26.7661    8.9653 O.2       13 UNK        -0.5035 
     22 N         -53.5066  -25.8039   10.9618 N.am      13 UNK        -0.4233 
     23 C         -53.4504  -24.4854   11.1744 C.2       13 UNK         0.4989 
     24 O         -53.9556  -23.6459   10.4261 O.2       13 UNK        -0.4996 
     25 CA        -52.7074  -24.0387   12.4502 C.3       12 UNK         0.0216 
     26 CB        -53.0528  -22.5913   12.8648 C.3       12 UNK        -0.1964 
     27 N         -52.8762  -24.9352   13.6069 N.am      12 UNK        -0.4276 
     28 C         -54.0388  -25.3234   14.1548 C.2       12 UNK         0.5020 
     29 O         -55.1430  -25.1298   13.6405 O.2       12 UNK        -0.5489 
     30 CA        -53.9368  -26.0165   15.5240 C.3       11 UNK         0.0294 
     31 CB        -55.3107  -26.2206   16.1994 C.3       11 UNK        -0.2019 
     32 N         -53.1795  -27.2719   15.4959 N.am      11 UNK        -0.4493 
     33 C         -53.5066  -28.4176   14.8757 C.2       11 UNK         0.4932 
     34 O         -54.4444  -28.5233   14.0857 O.2       11 UNK        -0.5029 
     35 CA        -52.6722  -29.6791   15.2006 C.3       10 UNK         0.0280 
     36 CB        -51.9397  -30.2031   13.9569 C.3       10 UNK        -0.1976 
     37 N         -51.6921  -29.4939   16.2726 N.am      10 UNK        -0.4242 
     38 C         -51.9667  -29.3620   17.5782 C.2       10 UNK         0.5072 
     39 O         -53.0903  -29.5084   18.0601 O.2       10 UNK        -0.5224 
     40 CA        -50.7952  -28.9590   18.4994 C.3       9 UNK         0.0343 
     41 CB        -50.2866  -30.1789   19.2849 C.3       9 UNK        -0.2003 
     42 N         -49.6607  -28.3233   17.8103 N.am      9 UNK        -0.4272 
     43 C         -49.7230  -27.1966   17.0854 C.2       9 UNK         0.4988 
     44 O         -50.7640  -26.5589   16.9043 O.2       9 UNK        -0.5108 
     45 CA        -48.4250  -26.7680   16.3819 C.3       8 UNK         0.0248 
     46 CB        -48.1134  -27.7139   15.2092 C.3       8 UNK        -0.2001 
     47 N         -48.5393  -25.3988   15.8763 N.am      8 UNK        -0.4140 
     48 C         -48.3911  -24.2995   16.6231 C.2       8 UNK         0.5028 
     49 O         -47.9463  -24.3150   17.7733 O.2       8 UNK        -0.5428 
     50 CA        -48.8244  -22.9659   15.9796 C.3       7 UNK         0.0264 
     51 CB        -48.5873  -21.7570   16.9052 C.3       7 UNK        -0.1988 
     52 N         -48.1812  -22.7013   14.6887 N.am      7 UNK        -0.4454 
     53 C         -48.5297  -23.2484   13.5168 C.2       7 UNK         0.5027 
     54 O         -49.3718  -24.1445   13.4108 O.2       7 UNK        -0.5083 
     55 CA        -47.8050  -22.6998   12.2673 C.3       6 UNK         0.0844 
     56 C56       -46.5494  -23.5326   11.8852 C.3       14 UNK        -0.0967 
     57 S57       -46.8864  -24.9878   10.8312 S.3       14 UNK        -0.2604 
     58 C58       -46.9542  -26.3130   12.0669 C.3       14 UNK         0.0134 
     59 N         -48.7234  -22.5285   11.1397 N.am      6 UNK        -0.4116 
     60 C         -49.7629  -21.6866   11.0943 C.2       5 UNK         0.5034 
     61 O         -50.0322  -20.8973   12.0010 O.2       5 UNK        -0.5045 
     62 CA        -50.6389  -21.6905    9.8234 C.3       5 UNK         0.0224 
     63 CB        -50.8961  -20.2585    9.3200 C.3       5 UNK        -0.1978 
     64 N         -50.1074  -22.4865    8.7111 N.am      5 UNK        -0.4737 
     65 C         -50.2120  -23.8158    8.5972 C.2       4 UNK         0.5027 
     66 O         -50.6586  -24.5437    9.4824 O.2       4 UNK        -0.5211 
     67 CA        -49.6844  -24.4232    7.2870 C.3       4 UNK         0.0297 
     68 CB        -48.2567  -24.9556    7.4753 C.3       4 UNK        -0.1993 
     69 N         -50.5395  -25.4992    6.7830 N.am      4 UNK        -0.4486 
     70 C         -51.7947  -25.3350    6.3363 C.2       3 UNK         0.4961 
     71 O         -52.3649  -24.2424    6.3040 O.2       3 UNK        -0.5105 
     72 CA        -52.5275  -26.5905    5.8089 C.3       3 UNK         0.0299 
     73 CB        -53.7143  -26.2511    4.8827 C.3       3 UNK        -0.1972 
     74 N         -51.6343  -27.5661    5.1720 N.am      3 UNK        -0.4305 
     75 C         -50.8083  -27.3573    4.1304 C.2       2 UNK         0.5006 
     76 O         -50.7923  -26.3164    3.4710 O.2       2 UNK        -0.5106 
     77 CA        -49.8159  -28.4899    3.7728 C.3       2 UNK         0.0296 
     78 CB        -48.4927  -27.9475    3.1910 C.3       2 UNK        -0.2002 
     79 N         -49.5453  -29.4157    4.8821 N.am      2 UNK        -0.4032 
     80 C         -49.0826  -29.1061    6.1053 C.2       1 UNK         0.5000 
     81 O         -48.6995  -27.9805    6.4237 O.2       1 UNK        -0.5238 
     82 H82       -52.9285  -32.5731    7.3112 H         1 UNK         0.0889 
     83 H83       -51.5275  -33.3808    6.6045 H         1 UNK         0.0889 
     84 H84       -52.6636  -32.5151    5.5666 H         1 UNK         0.0889 
     85 H85       -49.6404  -32.2383    6.9364 H         1 UNK         0.3028 
     86 H86       -49.5149  -29.7175    8.0682 H         1 UNK         0.0864 
     87 H87       -47.0463  -29.8834    7.7819 H         1 UNK         0.0720 
     88 H88       -47.2408  -31.1707    6.6197 H         1 UNK         0.0720 
     89 H89       -45.9033  -30.7529    9.9483 H         1 UNK         0.0814 
     90 H90       -46.8216  -31.7064   11.0875 H         1 UNK         0.0814 
     91 H91       -45.9305  -28.6773   11.1613 H         1 UNK         0.1469 
     92 H92       -49.6348  -26.6076   11.7595 H         1 UNK         0.1381 
     93 H93       -49.6532  -30.6530   10.3477 H         1 UNK         0.1206 
     94 H94       -51.7269  -27.9840   11.7459 H         1 UNK         0.0813 
     95 H95       -51.7232  -29.6011   11.0713 H         1 UNK         0.0813 
     96 H96       -53.9432  -28.5413   10.4279 H         1 UNK         0.0638 
     97 H97       -54.1339  -28.3212    8.7085 H         1 UNK         0.0638 
     98 H98       -53.9476  -25.8679    8.9426 H         1 UNK         0.0568 
     99 H99       -57.3538  -26.0285   11.0896 H         1 UNK         0.3450 
    100 H100      -55.8129  -25.7434   11.8643 H         1 UNK         0.3450 
    101 H101      -53.0918  -26.4189   11.6425 H         1 UNK         0.2987 
    102 H102      -51.6497  -24.0640   12.1876 H         1 UNK         0.0766 
    103 H103      -52.4443  -22.2685   13.7097 H         1 UNK         0.0798 
    104 H104      -54.1015  -22.4935   13.1472 H         1 UNK         0.0798 
    105 H105      -52.8705  -21.8849   12.0555 H         1 UNK         0.0798 
    106 H106      -52.0217  -25.1811   14.0887 H         1 UNK         0.3198 
    107 H107      -53.3679  -25.3393   16.1636 H         1 UNK         0.0843 
    108 H108      -55.9604  -26.8722   15.6142 H         1 UNK         0.0831 
    109 H109      -55.8307  -25.2691   16.3177 H         1 UNK         0.0831 
    110 H110      -55.2035  -26.6576   17.1923 H         1 UNK         0.0831 
    111 H111      -52.3433  -27.2642   16.0750 H         1 UNK         0.3133 
    112 H112      -53.3791  -30.4471   15.5209 H         1 UNK         0.0566 
    113 H113      -51.4612  -31.1625   14.1547 H         1 UNK         0.0814 
    114 H114      -52.6347  -30.3581   13.1309 H         1 UNK         0.0814 
    115 H115      -51.1679  -29.5093   13.6241 H         1 UNK         0.0814 
    116 H116      -50.7324  -29.3731   15.9860 H         1 UNK         0.3091 
    117 H117      -51.1886  -28.2326   19.2135 H         1 UNK         0.0702 
    118 H118      -49.5299  -29.8941   20.0162 H         1 UNK         0.0785 
    119 H119      -49.8523  -30.9314   18.6254 H         1 UNK         0.0785 
    120 H120      -51.0993  -30.6570   19.8339 H         1 UNK         0.0785 
    121 H121      -48.7686  -28.7892   17.8991 H         1 UNK         0.2998 
    122 H122      -47.6073  -26.8212   17.1039 H         1 UNK         0.0697 
    123 H123      -48.8791  -27.6659   14.4339 H         1 UNK         0.0825 
    124 H124      -48.0462  -28.7520   15.5363 H         1 UNK         0.0825 
    125 H125      -47.1539  -27.4698   14.7546 H         1 UNK         0.0825 
    126 H126      -48.9366  -25.2759   14.9500 H         1 UNK         0.3029 
    127 H127      -49.9019  -23.0407   15.8141 H         1 UNK         0.0897 
    128 H128      -47.5278  -21.6162   17.1228 H         1 UNK         0.0792 
    129 H129      -49.1020  -21.8862   17.8584 H         1 UNK         0.0792 
    130 H130      -48.9653  -20.8360   16.4607 H         1 UNK         0.0792 
    131 H131      -47.4516  -22.0025   14.6960 H         1 UNK         0.3086 
    132 H132      -47.4531  -21.6979   12.5233 H         1 UNK         0.0583 
    133 H133      -45.8698  -22.8934   11.3192 H         1 UNK         0.1020 
    134 H134      -45.9815  -23.8319   12.7686 H         1 UNK         0.1020 
    135 H135      -45.9400  -26.5798   12.3677 H         1 UNK         0.0694 
    136 H136      -47.4565  -25.9499   12.9620 H         1 UNK         0.0694 
    137 H137      -48.6142  -23.1923   10.3868 H         1 UNK         0.2989 
    138 H138      -51.6007  -22.1198   10.1091 H         1 UNK         0.1055 
    139 H139      -51.3754  -19.6499   10.0882 H         1 UNK         0.0806 
    140 H140      -51.5585  -20.2549    8.4540 H         1 UNK         0.0806 
    141 H141      -49.9693  -19.7573    9.0384 H         1 UNK         0.0806 
    142 H142      -49.6882  -21.9676    7.9520 H         1 UNK         0.3061 
    143 H143      -49.6598  -23.6425    6.5238 H         1 UNK         0.0734 
    144 H144      -47.8413  -25.3201    6.5356 H         1 UNK         0.0832 
    145 H145      -47.5892  -24.1761    7.8442 H         1 UNK         0.0832 
    146 H146      -48.2299  -25.7778    8.1925 H         1 UNK         0.0832 
    147 H147      -50.1329  -26.4283    6.7787 H         1 UNK         0.3156 
    148 H148      -52.9367  -27.0909    6.6865 H         1 UNK         0.0589 
    149 H149      -53.3936  -25.6936    4.0022 H         1 UNK         0.0808 
    150 H150      -54.2229  -27.1533    4.5432 H         1 UNK         0.0808 
    151 H151      -54.4539  -25.6411    5.4028 H         1 UNK         0.0808 
    152 H152      -51.5976  -28.4697    5.6390 H         1 UNK         0.3098 
    153 H153      -50.3031  -29.0803    2.9956 H         1 UNK         0.0720 
    154 H154      -48.6687  -27.3783    2.2774 H         1 UNK         0.0791 
    155 H155      -47.8085  -28.7574    2.9383 H         1 UNK         0.0791 
    156 H156      -47.9846  -27.2855    3.8931 H         1 UNK         0.0791 
    157 H157      -49.8505  -30.3683    4.7384 H         1 UNK         0.3028 
@<TRIPOS>BOND
     1    1    2 1    
     2    1   82 1    
     3    1   83 1    
     4    1   84 1    
     5    2    3 2    
     6    2    4 am   BACKBONE|DICT|INTERRES
     7    4    5 1    
     8    4   85 1    
     9    5    6 1    
    10    5   80 1    
    11    5   86 1    
    12    6    7 1    
    13    6   87 1    
    14    6   88 1    
    15    7    8 1    
    16    8    9 1    
    17    8   89 1    
    18    8   90 1    
    19    9   10 ar   
    20    9   14 ar   
    21   10   11 ar   
    22   10   91 1    
    23   11   12 ar   
    24   11   58 1    
    25   12   13 ar   
    26   12   92 1    
    27   13   14 ar   
    28   13   15 1    
    29   14   93 1    
    30   15   16 1    
    31   15   94 1    
    32   15   95 1    
    33   16   17 1    
    34   17   18 1    
    35   17   96 1    
    36   17   97 1    
    37   18   19 1    
    38   18   22 1    
    39   18   98 1    
    40   19   20 am   BACKBONE|DICT|INTERRES
    41   19   21 2    
    42   20   99 1    
    43   20  100 1    
    44   22   23 am   BACKBONE|DICT|INTERRES
    45   22  101 1    
    46   23   24 2    
    47   23   25 1    
    48   25   26 1    
    49   25   27 1    
    50   25  102 1    
    51   26  103 1    
    52   26  104 1    
    53   26  105 1    
    54   27   28 am   BACKBONE|DICT|INTERRES
    55   27  106 1    
    56   28   29 2    
    57   28   30 1    
    58   30   31 1    
    59   30   32 1    
    60   30  107 1    
    61   31  108 1    
    62   31  109 1    
    63   31  110 1    
    64   32   33 am   BACKBONE|DICT|INTERRES
    65   32  111 1    
    66   33   34 2    
    67   33   35 1    
    68   35   36 1    
    69   35   37 1    
    70   35  112 1    
    71   36  113 1    
    72   36  114 1    
    73   36  115 1    
    74   37   38 am   BACKBONE|DICT|INTERRES
    75   37  116 1    
    76   38   39 2    
    77   38   40 1    
    78   40   41 1    
    79   40   42 1    
    80   40  117 1    
    81   41  118 1    
    82   41  119 1    
    83   41  120 1    
    84   42   43 am   BACKBONE|DICT|INTERRES
    85   42  121 1    
    86   43   44 2    
    87   43   45 1    
    88   45   46 1    
    89   45   47 1    
    90   45  122 1    
    91   46  123 1    
    92   46  124 1    
    93   46  125 1    
    94   47   48 am   BACKBONE|DICT|INTERRES
    95   47  126 1    
    96   48   49 2    
    97   48   50 1    
    98   50   51 1    
    99   50   52 1    
   100   50  127 1    
   101   51  128 1    
   102   51  129 1    
   103   51  130 1    
   104   52   53 am   BACKBONE|DICT|INTERRES
   105   52  131 1    
   106   53   54 2    
   107   53   55 1    
   108   55   56 1    
   109   55   59 1    
   110   55  132 1    
   111   56   57 1    
   112   56  133 1    
   113   56  134 1    
   114   57   58 1    
   115   58  135 1    
   116   58  136 1    
   117   59   60 am   BACKBONE|DICT|INTERRES
   118   59  137 1    
   119   60   61 2    
   120   60   62 1    
   121   62   63 1    
   122   62   64 1    
   123   62  138 1    
   124   63  139 1    
   125   63  140 1    
   126   63  141 1    
   127   64   65 am   BACKBONE|DICT|INTERRES
   128   64  142 1    
   129   65   66 2    
   130   65   67 1    
   131   67   68 1    
   132   67   69 1    
   133   67  143 1    
   134   68  144 1    
   135   68  145 1    
   136   68  146 1    
   137   69   70 am   BACKBONE|DICT|INTERRES
   138   69  147 1    
   139   70   71 2    
   140   70   72 1    
   141   72   73 1    
   142   72   74 1    
   143   72  148 1    
   144   73  149 1    
   145   73  150 1    
   146   73  151 1    
   147   74   75 am   BACKBONE|DICT|INTERRES
   148   74  152 1    
   149   75   76 2    
   150   75   77 1    
   151   77   78 1    
   152   77   79 1    
   153   77  153 1    
   154   78  154 1    
   155   78  155 1    
   156   78  156 1    
   157   79   80 am   BACKBONE|DICT|INTERRES
   158   79  157 1    
   159   80   81 2    
@<TRIPOS>SUBSTRUCTURE
     1 UNK         1 GROUP             0       ****    0 ROOT    
