@<TRIPOS>MOLECULE
3R207
157   159    1
SMALL
USER_CHARGES


@<TRIPOS>ATOM
      1 CA        -46.5349  -24.4905   11.7716 C.3       0 UNK        -0.1975 
      2 C         -46.9041  -25.3908   10.6028 C.2       0 UNK         0.4852 
      3 O         -47.2958  -24.8910    9.5474 O.2       0 UNK        -0.5216 
      4 N         -46.7546  -26.7124   10.7749 N.am      1 UNK        -0.4461 
      5 CA        -47.0428  -27.7630    9.7857 C.3       1 UNK         0.0864 
      6 C6        -48.5579  -27.9082    9.4761 C.3       14 UNK        -0.0898 
      7 S7        -49.4996  -28.4432   10.9483 S.3       14 UNK        -0.2598 
      8 C8        -50.1612  -30.0563   10.4092 C.3       14 UNK         0.0286 
      9 C9        -51.5595  -29.9284    9.8170 C.ar      14 UNK        -0.0844 
     10 C10       -51.7630  -29.2458    8.6130 C.ar      14 UNK        -0.0881 
     11 C11       -53.0527  -29.0711    8.1028 C.ar      14 UNK        -0.0643 
     12 C12       -54.1371  -29.6506    8.7663 C.ar      14 UNK        -0.0930 
     13 C13       -53.9466  -30.3620    9.9532 C.ar      14 UNK        -0.0827 
     14 C14       -52.6574  -30.4882   10.4796 C.ar      14 UNK        -0.1249 
     15 C15       -55.1340  -30.9989   10.6611 C.3       14 UNK         0.0141 
     16 S16       -55.8532  -29.8987   11.9185 S.3       14 UNK        -0.2313 
     17 C17       -56.6735  -28.6357   10.8806 C.3       14 UNK        -0.0915 
     18 CA        -57.5159  -27.6146   11.6903 C.3       13 UNK         0.0968 
     19 C         -58.7991  -28.2597   12.2944 C.2       13 UNK         0.5732 
     20 N         -58.9571  -28.3311   13.6111 N.am      13 UNK        -0.7310 
     21 O         -59.6748  -28.6932   11.5490 O.2       13 UNK        -0.5035 
     22 N         -56.6668  -26.8750   12.6328 N.am      13 UNK        -0.4233 
     23 C         -56.9767  -25.7484   13.2800 C.2       13 UNK         0.4989 
     24 O         -58.0446  -25.1501   13.1369 O.2       13 UNK        -0.4996 
     25 CA        -55.9150  -25.2206   14.2704 C.3       12 UNK         0.0216 
     26 CB        -56.3445  -23.9151   14.9661 C.3       12 UNK        -0.1964 
     27 N         -55.5458  -26.2082   15.2938 N.am      12 UNK        -0.4276 
     28 C         -54.7787  -27.2854   15.0824 C.2       12 UNK         0.5020 
     29 O         -54.3208  -27.5834   13.9776 O.2       12 UNK        -0.5489 
     30 CA        -54.5108  -28.2015   16.2915 C.3       11 UNK         0.0294 
     31 CB        -55.7189  -29.1200   16.5417 C.3       11 UNK        -0.2019 
     32 N         -53.3206  -29.0319   16.0807 N.am      11 UNK        -0.4493 
     33 C         -52.0813  -28.5455   15.9425 C.2       11 UNK         0.4932 
     34 O         -51.7832  -27.3658   16.1581 O.2       11 UNK        -0.5029 
     35 CA        -51.0064  -29.5307   15.4579 C.3       10 UNK         0.0280 
     36 CB        -51.3942  -30.2011   14.1247 C.3       10 UNK        -0.1976 
     37 N         -49.7776  -28.7736   15.2751 N.am      10 UNK        -0.4242 
     38 C         -48.5199  -29.2107   15.3734 C.2       10 UNK         0.5072 
     39 O         -48.2146  -30.3830   15.5965 O.2       10 UNK        -0.5224 
     40 CA        -47.4095  -28.1567   15.1874 C.3       9 UNK         0.0343 
     41 CB        -46.6605  -28.3915   13.8668 C.3       9 UNK        -0.2003 
     42 N         -47.9301  -26.7843   15.2031 N.am      9 UNK        -0.4272 
     43 C         -48.2389  -26.0953   16.3081 C.2       9 UNK         0.4988 
     44 O         -48.0091  -26.4969   17.4491 O.2       9 UNK        -0.5108 
     45 CA        -48.9540  -24.7463   16.1163 C.3       8 UNK         0.0248 
     46 CB        -47.9821  -23.6601   15.6130 C.3       8 UNK        -0.2001 
     47 N         -50.1727  -24.8141   15.2926 N.am      8 UNK        -0.4140 
     48 C         -50.2866  -25.0675   13.9815 C.2       8 UNK         0.5028 
     49 O         -49.3306  -25.3496   13.2515 O.2       8 UNK        -0.5428 
     50 CA        -51.6996  -24.9773   13.3826 C.3       7 UNK         0.0264 
     51 CB        -52.2662  -23.5475   13.5235 C.3       7 UNK        -0.1988 
     52 N         -51.5959  -25.3464   11.9758 N.am      7 UNK        -0.4454 
     53 C         -52.5838  -25.5386   11.0927 C.2       7 UNK         0.5027 
     54 O         -53.7836  -25.4617   11.3617 O.2       7 UNK        -0.5083 
     55 CA        -52.1202  -25.8157    9.6466 C.3       6 UNK         0.0844 
     56 C56       -53.2825  -25.9734    8.6267 C.3       14 UNK        -0.0967 
     57 S57       -52.6576  -26.5255    6.9958 S.3       14 UNK        -0.2604 
     58 C58       -53.2886  -28.2342    6.8515 C.3       14 UNK         0.0134 
     59 N         -51.1100  -24.8377    9.2218 N.am      6 UNK        -0.4116 
     60 C         -51.2679  -23.5093    9.1118 C.2       5 UNK         0.5034 
     61 O         -52.3111  -22.9062    9.3648 O.2       5 UNK        -0.5045 
     62 CA        -50.0433  -22.7118    8.6358 C.3       5 UNK         0.0224 
     63 CB        -49.2803  -22.1358    9.8394 C.3       5 UNK        -0.1978 
     64 N         -49.1332  -23.5276    7.8277 N.am      5 UNK        -0.4737 
     65 C         -49.3382  -23.8287    6.5369 C.2       4 UNK         0.5027 
     66 O         -50.2870  -23.3936    5.8824 O.2       4 UNK        -0.5211 
     67 CA        -48.3206  -24.7800    5.8767 C.3       4 UNK         0.0297 
     68 CB        -48.3240  -24.6999    4.3353 C.3       4 UNK        -0.1993 
     69 N         -46.9651  -24.6270    6.4153 N.am      4 UNK        -0.4486 
     70 C         -46.1792  -23.5386    6.3609 C.2       3 UNK         0.4961 
     71 O         -46.4726  -22.5094    5.7515 O.2       3 UNK        -0.5105 
     72 CA        -44.8466  -23.5812    7.1350 C.3       3 UNK         0.0299 
     73 CB        -44.8695  -22.5755    8.2995 C.3       3 UNK        -0.1972 
     74 N         -44.5354  -24.9102    7.6653 N.am      3 UNK        -0.4305 
     75 C         -43.9752  -25.9048    6.9628 C.2       2 UNK         0.5006 
     76 O         -43.5738  -25.7842    5.8050 O.2       2 UNK        -0.5106 
     77 CA        -43.8583  -27.2739    7.6600 C.3       2 UNK         0.0296 
     78 CB        -42.4493  -27.4581    8.2469 C.3       2 UNK        -0.2002 
     79 N         -44.8549  -27.4947    8.7156 N.am      2 UNK        -0.4032 
     80 C         -46.1797  -27.5812    8.5176 C.2       1 UNK         0.5000 
     81 O         -46.7086  -27.4659    7.4103 O.2       1 UNK        -0.5238 
     82 H82       -45.7108  -23.8340   11.4951 H         1 UNK         0.0889 
     83 H83       -46.2376  -25.0634   12.6495 H         1 UNK         0.0889 
     84 H84       -47.3857  -23.8703   12.0494 H         1 UNK         0.0889 
     85 H85       -46.4297  -27.0479   11.6692 H         1 UNK         0.3028 
     86 H86       -46.7112  -28.7042   10.2279 H         1 UNK         0.0864 
     87 H87       -48.9748  -26.9688    9.1127 H         1 UNK         0.0720 
     88 H88       -48.7078  -28.6310    8.6734 H         1 UNK         0.0720 
     89 H89       -50.1788  -30.7193   11.2750 H         1 UNK         0.0814 
     90 H90       -49.4926  -30.5293    9.6892 H         1 UNK         0.0814 
     91 H91       -50.9261  -28.8026    8.0934 H         1 UNK         0.1469 
     92 H92       -55.1359  -29.5349    8.3684 H         1 UNK         0.1381 
     93 H93       -52.5126  -31.0233   11.4081 H         1 UNK         0.1206 
     94 H94       -55.9025  -31.2843    9.9412 H         1 UNK         0.0813 
     95 H95       -54.8175  -31.9232   11.1466 H         1 UNK         0.0813 
     96 H96       -57.2883  -29.1341   10.1290 H         1 UNK         0.0638 
     97 H97       -55.9010  -28.0981   10.3294 H         1 UNK         0.0638 
     98 H98       -57.8831  -26.8753   10.9764 H         1 UNK         0.0568 
     99 H99       -59.7950  -28.7462   13.9861 H         1 UNK         0.3450 
    100 H100      -58.2470  -27.9738   14.2275 H         1 UNK         0.3450 
    101 H101      -55.7649  -27.2985   12.8462 H         1 UNK         0.2987 
    102 H102      -55.0247  -24.9969   13.6807 H         1 UNK         0.0766 
    103 H103      -56.5787  -23.1413   14.2336 H         1 UNK         0.0798 
    104 H104      -55.5496  -23.5238   15.6013 H         1 UNK         0.0798 
    105 H105      -57.2314  -24.0587   15.5846 H         1 UNK         0.0798 
    106 H106      -55.9164  -26.0514   16.2205 H         1 UNK         0.3198 
    107 H107      -54.3425  -27.5783   17.1726 H         1 UNK         0.0843 
    108 H108      -55.9339  -29.7473   15.6751 H         1 UNK         0.0831 
    109 H109      -56.6182  -28.5404   16.7537 H         1 UNK         0.0831 
    110 H110      -55.5510  -29.7744   17.3973 H         1 UNK         0.0831 
    111 H111      -53.4849  -30.0014   15.8541 H         1 UNK         0.3133 
    112 H112      -50.8596  -30.2878   16.2305 H         1 UNK         0.0566 
    113 H113      -50.5922  -30.8401   13.7555 H         1 UNK         0.0814 
    114 H114      -51.6119  -29.4595   13.3538 H         1 UNK         0.0814 
    115 H115      -52.2786  -30.8295   14.2319 H         1 UNK         0.0814 
    116 H116      -49.9319  -27.7783   15.1775 H         1 UNK         0.3091 
    117 H117      -46.7002  -28.2762   16.0090 H         1 UNK         0.0702 
    118 H118      -45.8570  -27.6675   13.7324 H         1 UNK         0.0785 
    119 H119      -47.3352  -28.3255   13.0139 H         1 UNK         0.0785 
    120 H120      -46.2088  -29.3843   13.8467 H         1 UNK         0.0785 
    121 H121      -48.2106  -26.3754   14.3129 H         1 UNK         0.2998 
    122 H122      -49.2945  -24.4355   17.1055 H         1 UNK         0.0697 
    123 H123      -47.5814  -23.8901   14.6261 H         1 UNK         0.0825 
    124 H124      -47.1325  -23.5563   16.2891 H         1 UNK         0.0825 
    125 H125      -48.4711  -22.6877   15.5560 H         1 UNK         0.0825 
    126 H126      -51.0306  -24.6684   15.8073 H         1 UNK         0.3029 
    127 H127      -52.3461  -25.6959   13.8892 H         1 UNK         0.0897 
    128 H128      -52.3837  -23.2663   14.5703 H         1 UNK         0.0792 
    129 H129      -53.2481  -23.4516   13.0612 H         1 UNK         0.0792 
    130 H130      -51.6105  -22.8110   13.0568 H         1 UNK         0.0792 
    131 H131      -50.6324  -25.4731   11.6842 H         1 UNK         0.3086 
    132 H132      -51.6021  -26.7712    9.6989 H         1 UNK         0.0583 
    133 H133      -54.0262  -26.6819    8.9945 H         1 UNK         0.1020 
    134 H134      -53.8125  -25.0284    8.4985 H         1 UNK         0.1020 
    135 H135      -54.3524  -28.1872    6.6134 H         1 UNK         0.0694 
    136 H136      -52.8051  -28.7188    6.0024 H         1 UNK         0.0694 
    137 H137      -50.2044  -25.2130    8.9841 H         1 UNK         0.2989 
    138 H138      -50.4034  -21.8791    8.0270 H         1 UNK         0.1055 
    139 H139      -48.9602  -22.9199   10.5251 H         1 UNK         0.0806 
    140 H140      -49.9105  -21.4488   10.4058 H         1 UNK         0.0806 
    141 H141      -48.3958  -21.5821    9.5238 H         1 UNK         0.0806 
    142 H142      -48.3385  -23.9434    8.3119 H         1 UNK         0.3061 
    143 H143      -48.6371  -25.7876    6.1508 H         1 UNK         0.0734 
    144 H144      -48.0904  -23.6960    3.9800 H         1 UNK         0.0832 
    145 H145      -47.5994  -25.3883    3.9009 H         1 UNK         0.0832 
    146 H146      -49.3027  -24.9653    3.9338 H         1 UNK         0.0832 
    147 H147      -46.6359  -25.4258    6.9469 H         1 UNK         0.3156 
    148 H148      -44.0560  -23.2810    6.4439 H         1 UNK         0.0589 
    149 H149      -43.9271  -22.5779    8.8473 H         1 UNK         0.0808 
    150 H150      -45.0265  -21.5599    7.9338 H         1 UNK         0.0808 
    151 H151      -45.6717  -22.7906    9.0060 H         1 UNK         0.0808 
    152 H152      -44.8542  -25.1036    8.6035 H         1 UNK         0.3098 
    153 H153      -44.0121  -28.0388    6.8957 H         1 UNK         0.0720 
    154 H154      -41.6862  -27.3284    7.4779 H         1 UNK         0.0791 
    155 H155      -42.3190  -28.4575    8.6627 H         1 UNK         0.0791 
    156 H156      -42.2418  -26.7345    9.0364 H         1 UNK         0.0791 
    157 H157      -44.5027  -27.5818    9.6583 H         1 UNK         0.3028 
@<TRIPOS>BOND
     1    1    2 1    
     2    1   82 1    
     3    1   83 1    
     4    1   84 1    
     5    2    3 2    
     6    2    4 am   BACKBONE|DICT|INTERRES
     7    4    5 1    
     8    4   85 1    
     9    5    6 1    
    10    5   80 1    
    11    5   86 1    
    12    6    7 1    
    13    6   87 1    
    14    6   88 1    
    15    7    8 1    
    16    8    9 1    
    17    8   89 1    
    18    8   90 1    
    19    9   10 ar   
    20    9   14 ar   
    21   10   11 ar   
    22   10   91 1    
    23   11   12 ar   
    24   11   58 1    
    25   12   13 ar   
    26   12   92 1    
    27   13   14 ar   
    28   13   15 1    
    29   14   93 1    
    30   15   16 1    
    31   15   94 1    
    32   15   95 1    
    33   16   17 1    
    34   17   18 1    
    35   17   96 1    
    36   17   97 1    
    37   18   19 1    
    38   18   22 1    
    39   18   98 1    
    40   19   20 am   BACKBONE|DICT|INTERRES
    41   19   21 2    
    42   20   99 1    
    43   20  100 1    
    44   22   23 am   BACKBONE|DICT|INTERRES
    45   22  101 1    
    46   23   24 2    
    47   23   25 1    
    48   25   26 1    
    49   25   27 1    
    50   25  102 1    
    51   26  103 1    
    52   26  104 1    
    53   26  105 1    
    54   27   28 am   BACKBONE|DICT|INTERRES
    55   27  106 1    
    56   28   29 2    
    57   28   30 1    
    58   30   31 1    
    59   30   32 1    
    60   30  107 1    
    61   31  108 1    
    62   31  109 1    
    63   31  110 1    
    64   32   33 am   BACKBONE|DICT|INTERRES
    65   32  111 1    
    66   33   34 2    
    67   33   35 1    
    68   35   36 1    
    69   35   37 1    
    70   35  112 1    
    71   36  113 1    
    72   36  114 1    
    73   36  115 1    
    74   37   38 am   BACKBONE|DICT|INTERRES
    75   37  116 1    
    76   38   39 2    
    77   38   40 1    
    78   40   41 1    
    79   40   42 1    
    80   40  117 1    
    81   41  118 1    
    82   41  119 1    
    83   41  120 1    
    84   42   43 am   BACKBONE|DICT|INTERRES
    85   42  121 1    
    86   43   44 2    
    87   43   45 1    
    88   45   46 1    
    89   45   47 1    
    90   45  122 1    
    91   46  123 1    
    92   46  124 1    
    93   46  125 1    
    94   47   48 am   BACKBONE|DICT|INTERRES
    95   47  126 1    
    96   48   49 2    
    97   48   50 1    
    98   50   51 1    
    99   50   52 1    
   100   50  127 1    
   101   51  128 1    
   102   51  129 1    
   103   51  130 1    
   104   52   53 am   BACKBONE|DICT|INTERRES
   105   52  131 1    
   106   53   54 2    
   107   53   55 1    
   108   55   56 1    
   109   55   59 1    
   110   55  132 1    
   111   56   57 1    
   112   56  133 1    
   113   56  134 1    
   114   57   58 1    
   115   58  135 1    
   116   58  136 1    
   117   59   60 am   BACKBONE|DICT|INTERRES
   118   59  137 1    
   119   60   61 2    
   120   60   62 1    
   121   62   63 1    
   122   62   64 1    
   123   62  138 1    
   124   63  139 1    
   125   63  140 1    
   126   63  141 1    
   127   64   65 am   BACKBONE|DICT|INTERRES
   128   64  142 1    
   129   65   66 2    
   130   65   67 1    
   131   67   68 1    
   132   67   69 1    
   133   67  143 1    
   134   68  144 1    
   135   68  145 1    
   136   68  146 1    
   137   69   70 am   BACKBONE|DICT|INTERRES
   138   69  147 1    
   139   70   71 2    
   140   70   72 1    
   141   72   73 1    
   142   72   74 1    
   143   72  148 1    
   144   73  149 1    
   145   73  150 1    
   146   73  151 1    
   147   74   75 am   BACKBONE|DICT|INTERRES
   148   74  152 1    
   149   75   76 2    
   150   75   77 1    
   151   77   78 1    
   152   77   79 1    
   153   77  153 1    
   154   78  154 1    
   155   78  155 1    
   156   78  156 1    
   157   79   80 am   BACKBONE|DICT|INTERRES
   158   79  157 1    
   159   80   81 2    
@<TRIPOS>SUBSTRUCTURE
     1 UNK         1 GROUP             0       ****    0 ROOT    
