@<TRIPOS>MOLECULE
3R207
157   159    1
SMALL
USER_CHARGES


@<TRIPOS>ATOM
      1 CA        -52.0967  -30.4897    6.3489 C.3       0 UNK        -0.1975 
      2 C         -51.8665  -29.3739    5.3426 C.2       0 UNK         0.4852 
      3 O         -51.6066  -29.6519    4.1713 O.2       0 UNK        -0.5216 
      4 N         -51.9684  -28.1129    5.7870 N.am      1 UNK        -0.4461 
      5 CA        -51.8039  -26.9202    4.9454 C.3       1 UNK         0.0864 
      6 C6        -52.4643  -25.6673    5.5764 C.3       14 UNK        -0.0898 
      7 S7        -51.5961  -24.9522    7.0170 S.3       14 UNK        -0.2598 
      8 C8        -52.5537  -25.6020    8.4281 C.3       14 UNK         0.0286 
      9 C9        -52.1460  -27.0075    8.8680 C.ar      14 UNK        -0.0844 
     10 C10       -50.8147  -27.4445    8.8170 C.ar      14 UNK        -0.0881 
     11 C11       -50.4753  -28.7490    9.1950 C.ar      14 UNK        -0.0643 
     12 C12       -51.4751  -29.6059    9.6665 C.ar      14 UNK        -0.0930 
     13 C13       -52.8035  -29.1764    9.7488 C.ar      14 UNK        -0.0827 
     14 C14       -53.1288  -27.8779    9.3469 C.ar      14 UNK        -0.1249 
     15 C15       -53.9042  -30.1267   10.2050 C.3       14 UNK         0.0141 
     16 S16       -53.6109  -30.7992   11.8715 S.3       14 UNK        -0.2313 
     17 C17       -55.2856  -31.3941   12.2964 C.3       14 UNK        -0.0915 
     18 CA        -56.0317  -30.5019   13.3330 C.3       13 UNK         0.0968 
     19 C         -55.4974  -30.6081   14.7898 C.2       13 UNK         0.5732 
     20 N         -55.1910  -31.8086   15.2665 N.am      13 UNK        -0.7310 
     21 O         -55.3930  -29.6226   15.5172 O.2       13 UNK        -0.5035 
     22 N         -56.1205  -29.1062   12.8803 N.am      13 UNK        -0.4233 
     23 C         -57.2001  -28.5302   12.3385 C.2       13 UNK         0.4989 
     24 O         -58.2650  -29.1226   12.1535 O.2       13 UNK        -0.4996 
     25 CA        -57.0713  -27.0577   11.8901 C.3       12 UNK         0.0216 
     26 CB        -58.4180  -26.3014   11.9208 C.3       12 UNK        -0.1964 
     27 N         -56.0259  -26.3054   12.5952 N.am      12 UNK        -0.4276 
     28 C         -55.9737  -25.9946   13.8988 C.2       12 UNK         0.5020 
     29 O         -56.8533  -26.2618   14.7206 O.2       12 UNK        -0.5489 
     30 CA        -54.6879  -25.2840   14.3605 C.3       11 UNK         0.0294 
     31 CB        -54.9969  -24.0991   15.2923 C.3       11 UNK        -0.2019 
     32 N         -53.7564  -26.1934   15.0335 N.am      11 UNK        -0.4493 
     33 C         -53.2413  -27.3160   14.5128 C.2       11 UNK         0.4932 
     34 O         -53.4917  -27.7229   13.3773 O.2       11 UNK        -0.5029 
     35 CA        -52.2714  -28.0852   15.4200 C.3       10 UNK         0.0280 
     36 CB        -51.7920  -29.4161   14.8088 C.3       10 UNK        -0.1976 
     37 N         -51.1067  -27.2438   15.6734 N.am      10 UNK        -0.4242 
     38 C         -50.5932  -26.9653   16.8760 C.2       10 UNK         0.5072 
     39 O         -51.0849  -27.3483   17.9387 O.2       10 UNK        -0.5224 
     40 CA        -49.2991  -26.1347   16.9102 C.3       9 UNK         0.0343 
     41 CB        -48.0735  -27.0502   16.7592 C.3       9 UNK        -0.2003 
     42 N         -49.2413  -25.0700   15.9044 N.am      9 UNK        -0.4272 
     43 C         -49.9949  -23.9605   15.9369 C.2       9 UNK         0.4988 
     44 O         -50.8678  -23.7481   16.7795 O.2       9 UNK        -0.5108 
     45 CA        -49.7089  -22.8935   14.8680 C.3       8 UNK         0.0248 
     46 CB        -48.4041  -22.1420   15.1802 C.3       8 UNK        -0.2001 
     47 N         -49.6401  -23.4628   13.5236 N.am      8 UNK        -0.4140 
     48 C         -50.7084  -23.8657   12.8221 C.2       8 UNK         0.5028 
     49 O         -51.8703  -23.7084   13.1948 O.2       8 UNK        -0.5428 
     50 CA        -50.4411  -24.5713   11.4807 C.3       7 UNK         0.0264 
     51 CB        -50.2683  -23.5350   10.3601 C.3       7 UNK        -0.1988 
     52 N         -49.2819  -25.4681   11.5126 N.am      7 UNK        -0.4454 
     53 C         -49.1859  -26.5343   12.3234 C.2       7 UNK         0.5027 
     54 O         -50.0759  -26.8848   13.0951 O.2       7 UNK        -0.5083 
     55 CA        -47.8474  -27.2937   12.3604 C.3       6 UNK         0.0844 
     56 C56       -47.8231  -28.5366   11.4381 C.3       14 UNK        -0.0967 
     57 S57       -47.7547  -28.1758    9.6523 S.3       14 UNK        -0.2604 
     58 C58       -49.0564  -29.2770    9.0076 C.3       14 UNK         0.0134 
     59 N         -46.7019  -26.3956   12.1884 N.am      6 UNK        -0.4116 
     60 C         -46.3199  -25.5074   13.1194 C.2       5 UNK         0.5034 
     61 O         -46.8771  -25.3741   14.2097 O.2       5 UNK        -0.5045 
     62 CA        -45.1508  -24.5787   12.7600 C.3       5 UNK         0.0224 
     63 CB        -43.8240  -25.3538   12.7016 C.3       5 UNK        -0.1978 
     64 N         -45.3646  -23.8665   11.4995 N.am      5 UNK        -0.4737 
     65 C         -46.3637  -23.0033   11.2628 C.2       4 UNK         0.5027 
     66 O         -47.2080  -22.6886   12.0994 O.2       4 UNK        -0.5211 
     67 CA        -46.4476  -22.4077    9.8454 C.3       4 UNK         0.0297 
     68 CB        -45.7096  -21.0611    9.7868 C.3       4 UNK        -0.1993 
     69 N         -45.9184  -23.3021    8.8116 N.am      4 UNK        -0.4486 
     70 C         -46.4355  -24.4991    8.5048 C.2       3 UNK         0.4961 
     71 O         -47.4419  -24.9701    9.0386 O.2       3 UNK        -0.5105 
     72 CA        -45.6180  -25.3311    7.5044 C.3       3 UNK         0.0299 
     73 CB        -44.5172  -26.1097    8.2453 C.3       3 UNK        -0.1972 
     74 N         -46.4253  -26.2802    6.7394 N.am      3 UNK        -0.4305 
     75 C         -47.3127  -25.9607    5.7883 C.2       2 UNK         0.5006 
     76 O         -47.5963  -24.8022    5.4787 O.2       2 UNK        -0.5106 
     77 CA        -47.9431  -27.1255    5.0018 C.3       2 UNK         0.0296 
     78 CB        -47.3017  -28.5021    5.2810 C.3       2 UNK        -0.2002 
     79 N         -49.3770  -27.2047    5.2680 N.am      2 UNK        -0.4032 
     80 C         -50.3419  -26.6752    4.5017 C.2       1 UNK         0.5000 
     81 O         -50.1287  -26.0425    3.4646 O.2       1 UNK        -0.5238 
     82 H82       -52.8300  -30.1967    7.0989 H         1 UNK         0.0889 
     83 H83       -51.1645  -30.7461    6.8511 H         1 UNK         0.0889 
     84 H84       -52.4721  -31.3827    5.8498 H         1 UNK         0.0889 
     85 H85       -52.1693  -27.9384    6.7640 H         1 UNK         0.3028 
     86 H86       -52.3554  -27.1199    4.0236 H         1 UNK         0.0864 
     87 H87       -52.5300  -24.8804    4.8226 H         1 UNK         0.0720 
     88 H88       -53.4983  -25.8885    5.8451 H         1 UNK         0.0720 
     89 H89       -53.6152  -25.5704    8.1777 H         1 UNK         0.0814 
     90 H90       -52.4344  -24.9254    9.2713 H         1 UNK         0.0814 
     91 H91       -50.0396  -26.7770    8.4642 H         1 UNK         0.1469 
     92 H92       -51.2287  -30.6205    9.9480 H         1 UNK         0.1381 
     93 H93       -54.1569  -27.5462    9.3965 H         1 UNK         0.1206 
     94 H94       -53.9856  -30.9516    9.4956 H         1 UNK         0.0813 
     95 H95       -54.8679  -29.6144   10.1963 H         1 UNK         0.0813 
     96 H96       -55.2045  -32.4238   12.6469 H         1 UNK         0.0638 
     97 H97       -55.8825  -31.4567   11.3851 H         1 UNK         0.0638 
     98 H98       -57.0451  -30.8981   13.4155 H         1 UNK         0.0568 
     99 H99       -55.2796  -32.6357   14.6984 H         1 UNK         0.3450 
    100 H100      -54.8611  -31.8860   16.2156 H         1 UNK         0.3450 
    101 H101      -55.2803  -28.5556   13.0367 H         1 UNK         0.2987 
    102 H102      -56.7499  -27.1008   10.8482 H         1 UNK         0.0766 
    103 H103      -58.8498  -26.2833   12.9221 H         1 UNK         0.0798 
    104 H104      -58.3027  -25.2703   11.5861 H         1 UNK         0.0798 
    105 H105      -59.1484  -26.7730   11.2622 H         1 UNK         0.0798 
    106 H106      -55.2083  -26.0885   12.0406 H         1 UNK         0.3198 
    107 H107      -54.1801  -24.8886   13.4790 H         1 UNK         0.0843 
    108 H108      -55.4512  -24.4262   16.2286 H         1 UNK         0.0831 
    109 H109      -55.6902  -23.4025   14.8186 H         1 UNK         0.0831 
    110 H110      -54.0916  -23.5406   15.5329 H         1 UNK         0.0831 
    111 H111      -53.4858  -25.9420   15.9733 H         1 UNK         0.3133 
    112 H112      -52.8042  -28.3068   16.3472 H         1 UNK         0.0566 
    113 H113      -52.6290  -30.0930   14.6452 H         1 UNK         0.0814 
    114 H114      -51.3023  -29.2652   13.8452 H         1 UNK         0.0814 
    115 H115      -51.0885  -29.9259   15.4671 H         1 UNK         0.0814 
    116 H116      -50.6490  -26.8914   14.8330 H         1 UNK         0.3091 
    117 H117      -49.2418  -25.6620   17.8932 H         1 UNK         0.0702 
    118 H118      -47.1441  -26.4899   16.8640 H         1 UNK         0.0785 
    119 H119      -48.0582  -27.5450   15.7877 H         1 UNK         0.0785 
    120 H120      -48.0707  -27.8292   17.5228 H         1 UNK         0.0785 
    121 H121      -48.5156  -25.1519   15.1967 H         1 UNK         0.2998 
    122 H122      -50.5258  -22.1688   14.8926 H         1 UNK         0.0697 
    123 H123      -47.5352  -22.7997   15.1345 H         1 UNK         0.0825 
    124 H124      -48.4332  -21.7053   16.1793 H         1 UNK         0.0825 
    125 H125      -48.2399  -21.3278   14.4740 H         1 UNK         0.0825 
    126 H126      -48.7189  -23.5397   13.1025 H         1 UNK         0.3029 
    127 H127      -51.3122  -25.1909   11.2601 H         1 UNK         0.0897 
    128 H128      -49.4834  -22.8183   10.5956 H         1 UNK         0.0792 
    129 H129      -51.1871  -22.9666   10.2121 H         1 UNK         0.0792 
    130 H130      -50.0173  -24.0072    9.4104 H         1 UNK         0.0792 
    131 H131      -48.5264  -25.2712   10.8640 H         1 UNK         0.3086 
    132 H132      -47.7698  -27.6913   13.3748 H         1 UNK         0.0583 
    133 H133      -46.9526  -29.1473   11.6817 H         1 UNK         0.1020 
    134 H134      -48.6870  -29.1694   11.6528 H         1 UNK         0.1020 
    135 H135      -48.8944  -29.4220    7.9405 H         1 UNK         0.0694 
    136 H136      -48.9418  -30.2622    9.4627 H         1 UNK         0.0694 
    137 H137      -46.2385  -26.4171   11.2921 H         1 UNK         0.2989 
    138 H138      -45.0746  -23.8315   13.5533 H         1 UNK         0.1055 
    139 H139      -43.6473  -25.8940   13.6330 H         1 UNK         0.0806 
    140 H140      -42.9788  -24.6806   12.5563 H         1 UNK         0.0806 
    141 H141      -43.8115  -26.0857   11.8930 H         1 UNK         0.0806 
    142 H142      -44.7146  -24.0534   10.7510 H         1 UNK         0.3061 
    143 H143      -47.4994  -22.2273    9.6193 H         1 UNK         0.0734 
    144 H144      -44.6426  -21.1738    9.9836 H         1 UNK         0.0832 
    145 H145      -45.8250  -20.5859    8.8124 H         1 UNK         0.0832 
    146 H146      -46.1060  -20.3686   10.5310 H         1 UNK         0.0832 
    147 H147      -45.0851  -22.9949    8.3298 H         1 UNK         0.3156 
    148 H148      -45.1443  -24.6505    6.7935 H         1 UNK         0.0589 
    149 H149      -44.9363  -26.8137    8.9657 H         1 UNK         0.0808 
    150 H150      -43.8938  -26.6736    7.5509 H         1 UNK         0.0808 
    151 H151      -43.8558  -25.4375    8.7932 H         1 UNK         0.0808 
    152 H152      -46.2924  -27.2561    6.9584 H         1 UNK         0.3098 
    153 H153      -47.7800  -26.9075    3.9441 H         1 UNK         0.0720 
    154 H154      -47.7653  -29.2775    4.6703 H         1 UNK         0.0791 
    155 H155      -47.3978  -28.8055    6.3227 H         1 UNK         0.0791 
    156 H156      -46.2395  -28.4985    5.0318 H         1 UNK         0.0791 
    157 H157      -49.6575  -27.6742    6.1153 H         1 UNK         0.3028 
@<TRIPOS>BOND
     1    1    2 1    
     2    1   82 1    
     3    1   83 1    
     4    1   84 1    
     5    2    3 2    
     6    2    4 am   BACKBONE|DICT|INTERRES
     7    4    5 1    
     8    4   85 1    
     9    5    6 1    
    10    5   80 1    
    11    5   86 1    
    12    6    7 1    
    13    6   87 1    
    14    6   88 1    
    15    7    8 1    
    16    8    9 1    
    17    8   89 1    
    18    8   90 1    
    19    9   10 ar   
    20    9   14 ar   
    21   10   11 ar   
    22   10   91 1    
    23   11   12 ar   
    24   11   58 1    
    25   12   13 ar   
    26   12   92 1    
    27   13   14 ar   
    28   13   15 1    
    29   14   93 1    
    30   15   16 1    
    31   15   94 1    
    32   15   95 1    
    33   16   17 1    
    34   17   18 1    
    35   17   96 1    
    36   17   97 1    
    37   18   19 1    
    38   18   22 1    
    39   18   98 1    
    40   19   20 am   BACKBONE|DICT|INTERRES
    41   19   21 2    
    42   20   99 1    
    43   20  100 1    
    44   22   23 am   BACKBONE|DICT|INTERRES
    45   22  101 1    
    46   23   24 2    
    47   23   25 1    
    48   25   26 1    
    49   25   27 1    
    50   25  102 1    
    51   26  103 1    
    52   26  104 1    
    53   26  105 1    
    54   27   28 am   BACKBONE|DICT|INTERRES
    55   27  106 1    
    56   28   29 2    
    57   28   30 1    
    58   30   31 1    
    59   30   32 1    
    60   30  107 1    
    61   31  108 1    
    62   31  109 1    
    63   31  110 1    
    64   32   33 am   BACKBONE|DICT|INTERRES
    65   32  111 1    
    66   33   34 2    
    67   33   35 1    
    68   35   36 1    
    69   35   37 1    
    70   35  112 1    
    71   36  113 1    
    72   36  114 1    
    73   36  115 1    
    74   37   38 am   BACKBONE|DICT|INTERRES
    75   37  116 1    
    76   38   39 2    
    77   38   40 1    
    78   40   41 1    
    79   40   42 1    
    80   40  117 1    
    81   41  118 1    
    82   41  119 1    
    83   41  120 1    
    84   42   43 am   BACKBONE|DICT|INTERRES
    85   42  121 1    
    86   43   44 2    
    87   43   45 1    
    88   45   46 1    
    89   45   47 1    
    90   45  122 1    
    91   46  123 1    
    92   46  124 1    
    93   46  125 1    
    94   47   48 am   BACKBONE|DICT|INTERRES
    95   47  126 1    
    96   48   49 2    
    97   48   50 1    
    98   50   51 1    
    99   50   52 1    
   100   50  127 1    
   101   51  128 1    
   102   51  129 1    
   103   51  130 1    
   104   52   53 am   BACKBONE|DICT|INTERRES
   105   52  131 1    
   106   53   54 2    
   107   53   55 1    
   108   55   56 1    
   109   55   59 1    
   110   55  132 1    
   111   56   57 1    
   112   56  133 1    
   113   56  134 1    
   114   57   58 1    
   115   58  135 1    
   116   58  136 1    
   117   59   60 am   BACKBONE|DICT|INTERRES
   118   59  137 1    
   119   60   61 2    
   120   60   62 1    
   121   62   63 1    
   122   62   64 1    
   123   62  138 1    
   124   63  139 1    
   125   63  140 1    
   126   63  141 1    
   127   64   65 am   BACKBONE|DICT|INTERRES
   128   64  142 1    
   129   65   66 2    
   130   65   67 1    
   131   67   68 1    
   132   67   69 1    
   133   67  143 1    
   134   68  144 1    
   135   68  145 1    
   136   68  146 1    
   137   69   70 am   BACKBONE|DICT|INTERRES
   138   69  147 1    
   139   70   71 2    
   140   70   72 1    
   141   72   73 1    
   142   72   74 1    
   143   72  148 1    
   144   73  149 1    
   145   73  150 1    
   146   73  151 1    
   147   74   75 am   BACKBONE|DICT|INTERRES
   148   74  152 1    
   149   75   76 2    
   150   75   77 1    
   151   77   78 1    
   152   77   79 1    
   153   77  153 1    
   154   78  154 1    
   155   78  155 1    
   156   78  156 1    
   157   79   80 am   BACKBONE|DICT|INTERRES
   158   79  157 1    
   159   80   81 2    
@<TRIPOS>SUBSTRUCTURE
     1 UNK         1 GROUP             0       ****    0 ROOT    
