@<TRIPOS>MOLECULE
3R207
157   159    1
SMALL
USER_CHARGES


@<TRIPOS>ATOM
      1 CA        -47.6959  -27.9485   -0.3196 C.3       0 UNK        -0.1975 
      2 C         -48.1893  -27.3402    0.9851 C.2       0 UNK         0.4852 
      3 O         -48.5365  -26.1589    1.0164 O.2       0 UNK        -0.5216 
      4 N         -48.2192  -28.1359    2.0588 N.am      1 UNK        -0.4461 
      5 CA        -48.6115  -27.7395    3.4099 C.3       1 UNK         0.0864 
      6 C6        -50.1500  -27.5839    3.5639 C.3       14 UNK        -0.0898 
      7 S7        -50.6080  -26.5018    4.9623 S.3       14 UNK        -0.2598 
      8 C8        -51.9099  -27.5006    5.7473 C.3       14 UNK         0.0286 
      9 C9        -52.3208  -26.9258    7.0938 C.ar      14 UNK        -0.0844 
     10 C10       -52.9868  -25.6978    7.1650 C.ar      14 UNK        -0.0881 
     11 C11       -53.3738  -25.1670    8.3998 C.ar      14 UNK        -0.0643 
     12 C12       -53.1259  -25.9000    9.5647 C.ar      14 UNK        -0.0930 
     13 C13       -52.4314  -27.1102    9.5095 C.ar      14 UNK        -0.0827 
     14 C14       -52.0365  -27.6228    8.2715 C.ar      14 UNK        -0.1249 
     15 C15       -52.0518  -27.8299   10.7920 C.3       14 UNK         0.0141 
     16 S16       -53.3621  -28.9441   11.3698 S.3       14 UNK        -0.2313 
     17 C17       -52.4261  -29.8614   12.6366 C.3       14 UNK        -0.0915 
     18 CA        -53.3374  -30.5815   13.6623 C.3       13 UNK         0.0968 
     19 C         -52.5286  -31.5815   14.5429 C.2       13 UNK         0.5732 
     20 N         -52.5871  -31.5270   15.8688 N.am      13 UNK        -0.7310 
     21 O         -51.8375  -32.4452   14.0077 O.2       13 UNK        -0.5035 
     22 N         -54.1492  -29.6265   14.4322 N.am      13 UNK        -0.4233 
     23 C         -55.3501  -29.9134   14.9516 C.2       13 UNK         0.4989 
     24 O         -55.9423  -30.9764   14.7537 O.2       13 UNK        -0.4996 
     25 CA        -55.9876  -28.8394   15.8561 C.3       12 UNK         0.0216 
     26 CB        -57.1451  -29.3887   16.7172 C.3       12 UNK        -0.1964 
     27 N         -55.0135  -28.1348   16.6990 N.am      12 UNK        -0.4276 
     28 C         -54.1562  -28.6731   17.5830 C.2       12 UNK         0.5020 
     29 O         -54.0846  -29.8821   17.8070 O.2       12 UNK        -0.5489 
     30 CA        -53.1854  -27.7271   18.3171 C.3       11 UNK         0.0294 
     31 CB        -51.7299  -28.2028   18.1542 C.3       11 UNK        -0.2019 
     32 N         -53.2841  -26.3499   17.8325 N.am      11 UNK        -0.4493 
     33 C         -54.0453  -25.3887   18.3738 C.2       11 UNK         0.4932 
     34 O         -54.6904  -25.5286   19.4125 O.2       11 UNK        -0.5029 
     35 CA        -54.1253  -24.0509   17.6121 C.3       10 UNK         0.0280 
     36 CB        -53.1457  -23.0317   18.2153 C.3       10 UNK        -0.1976 
     37 N         -53.8600  -24.1778   16.1750 N.am      10 UNK        -0.4242 
     38 C         -54.6153  -24.8684   15.3065 C.2       10 UNK         0.5072 
     39 O         -55.6639  -25.4344   15.6126 O.2       10 UNK        -0.5224 
     40 CA        -54.0646  -25.0204   13.8777 C.3       9 UNK         0.0343 
     41 CB        -54.5499  -23.8566   12.9996 C.3       9 UNK        -0.2003 
     42 N         -52.5980  -25.1067   13.8543 N.am      9 UNK        -0.4272 
     43 C         -51.9000  -26.1147   14.4062 C.2       9 UNK         0.4988 
     44 O         -52.4404  -27.1057   14.9015 O.2       9 UNK        -0.5108 
     45 CA        -50.3646  -25.9972   14.4710 C.3       8 UNK         0.0248 
     46 CB        -49.6691  -27.2323   13.8763 C.3       8 UNK        -0.2001 
     47 N         -49.8480  -24.7897   13.8221 N.am      8 UNK        -0.4140 
     48 C         -49.6768  -23.6075   14.4359 C.2       8 UNK         0.5028 
     49 O         -49.9133  -23.4189   15.6293 O.2       8 UNK        -0.5428 
     50 CA        -49.2100  -22.4222   13.5662 C.3       7 UNK         0.0264 
     51 CB        -47.6783  -22.3076   13.5905 C.3       7 UNK        -0.1988 
     52 N         -49.6818  -22.5268   12.1809 N.am      7 UNK        -0.4454 
     53 C         -50.9788  -22.4646   11.8398 C.2       7 UNK         0.5027 
     54 O         -51.8557  -22.1265   12.6340 O.2       7 UNK        -0.5083 
     55 CA        -51.4075  -22.9436   10.4356 C.3       6 UNK         0.0844 
     56 C56       -52.2708  -21.8973    9.6905 C.3       14 UNK        -0.0967 
     57 S57       -52.8779  -22.4533    8.0559 S.3       14 UNK        -0.2604 
     58 C58       -54.0446  -23.7996    8.4644 C.3       14 UNK         0.0134 
     59 N         -50.3285  -23.4980    9.6115 N.am      6 UNK        -0.4116 
     60 C         -49.6863  -24.6454    9.8647 C.2       5 UNK         0.5034 
     61 O         -49.8690  -25.3085   10.8899 O.2       5 UNK        -0.5045 
     62 CA        -48.6545  -25.1298    8.8261 C.3       5 UNK         0.0224 
     63 CB        -48.2293  -24.0574    7.7986 C.3       5 UNK        -0.1978 
     64 N         -47.4757  -25.7181    9.4736 N.am      5 UNK        -0.4737 
     65 C         -46.6799  -25.1381   10.3852 C.2       4 UNK         0.5027 
     66 O         -46.7784  -23.9622   10.7371 O.2       4 UNK        -0.5211 
     67 CA        -45.6141  -26.0321   11.0420 C.3       4 UNK         0.0297 
     68 CB        -46.1484  -26.5909   12.3705 C.3       4 UNK        -0.1993 
     69 N         -45.2080  -27.1476   10.1813 N.am      4 UNK        -0.4486 
     70 C         -44.2678  -27.0609    9.2307 C.2       3 UNK         0.4961 
     71 O         -43.5824  -26.0582    9.0278 O.2       3 UNK        -0.5105 
     72 CA        -44.0733  -28.3031    8.3413 C.3       3 UNK         0.0299 
     73 CB        -43.1906  -29.3452    9.0478 C.3       3 UNK        -0.1972 
     74 N         -45.3338  -28.9270    7.9171 N.am      3 UNK        -0.4305 
     75 C         -46.2611  -28.3231    7.1605 C.2       2 UNK         0.5006 
     76 O         -46.1700  -27.1576    6.7675 O.2       2 UNK        -0.5106 
     77 CA        -47.5108  -29.1480    6.8096 C.3       2 UNK         0.0296 
     78 CB        -48.4628  -29.2499    8.0149 C.3       2 UNK        -0.2002 
     79 N         -48.2192  -28.5107    5.7000 N.am      2 UNK        -0.4032 
     80 C         -47.9797  -28.7357    4.4041 C.2       1 UNK         0.5000 
     81 O         -47.2781  -29.6638    3.9861 O.2       1 UNK        -0.5238 
     82 H82       -47.4265  -28.9982   -0.2036 H         1 UNK         0.0889 
     83 H83       -46.8181  -27.4104   -0.6763 H         1 UNK         0.0889 
     84 H84       -48.4714  -27.8801   -1.0821 H         1 UNK         0.0889 
     85 H85       -47.8613  -29.0830    2.0106 H         1 UNK         0.3028 
     86 H86       -48.1385  -26.7743    3.6064 H         1 UNK         0.0864 
     87 H87       -50.6324  -28.5595    3.6476 H         1 UNK         0.0720 
     88 H88       -50.5752  -27.1239    2.6708 H         1 UNK         0.0720 
     89 H89       -52.7790  -27.5444    5.0893 H         1 UNK         0.0814 
     90 H90       -51.5579  -28.5268    5.8656 H         1 UNK         0.0814 
     91 H91       -53.1858  -25.1432    6.2579 H         1 UNK         0.1469 
     92 H92       -53.4382  -25.5187   10.5250 H         1 UNK         0.1381 
     93 H93       -51.5050  -28.5633    8.2283 H         1 UNK         0.1206 
     94 H94       -51.8413  -27.0981   11.5716 H         1 UNK         0.0813 
     95 H95       -51.1291  -28.3926   10.6416 H         1 UNK         0.0813 
     96 H96       -51.7913  -30.5756   12.1090 H         1 UNK         0.0638 
     97 H97       -51.7545  -29.1765   13.1532 H         1 UNK         0.0638 
     98 H98       -54.0179  -31.2096   13.0845 H         1 UNK         0.0568 
     99 H99       -53.1781  -30.8593   16.3529 H         1 UNK         0.3450 
    100 H100      -52.0558  -32.1944   16.4039 H         1 UNK         0.3450 
    101 H101      -53.7039  -28.7418   14.6517 H         1 UNK         0.2987 
    102 H102      -56.4055  -28.0908   15.1816 H         1 UNK         0.0766 
    103 H103      -57.5939  -28.6029   17.3249 H         1 UNK         0.0798 
    104 H104      -57.9368  -29.8043   16.0926 H         1 UNK         0.0798 
    105 H105      -56.8091  -30.1806   17.3875 H         1 UNK         0.0798 
    106 H106      -54.9977  -27.1290   16.5687 H         1 UNK         0.3198 
    107 H107      -53.4385  -27.7655   19.3787 H         1 UNK         0.0843 
    108 H108      -51.5941  -29.1989   18.5776 H         1 UNK         0.0831 
    109 H109      -51.0347  -27.5386   18.6676 H         1 UNK         0.0831 
    110 H110      -51.4337  -28.2549   17.1060 H         1 UNK         0.0831 
    111 H111      -52.8148  -26.1611   16.9571 H         1 UNK         0.3133 
    112 H112      -55.1399  -23.6652   17.7313 H         1 UNK         0.0566 
    113 H113      -52.1083  -23.3485   18.0971 H         1 UNK         0.0814 
    114 H114      -53.3269  -22.8999   19.2831 H         1 UNK         0.0814 
    115 H115      -53.2528  -22.0526   17.7479 H         1 UNK         0.0814 
    116 H116      -53.0145  -23.7437   15.8323 H         1 UNK         0.3091 
    117 H117      -54.4586  -25.9507   13.4619 H         1 UNK         0.0702 
    118 H118      -54.1554  -23.9180   11.9875 H         1 UNK         0.0785 
    119 H119      -54.2608  -22.8896   13.4126 H         1 UNK         0.0785 
    120 H120      -55.6380  -23.8600   12.9220 H         1 UNK         0.0785 
    121 H121      -52.0992  -24.3073   13.4888 H         1 UNK         0.2998 
    122 H122      -50.1090  -25.9682   15.5322 H         1 UNK         0.0697 
    123 H123      -49.8358  -27.3221   12.8034 H         1 UNK         0.0825 
    124 H124      -50.0224  -28.1495   14.3486 H         1 UNK         0.0825 
    125 H125      -48.5939  -27.1887   14.0448 H         1 UNK         0.0825 
    126 H126      -49.6717  -24.8618   12.8232 H         1 UNK         0.3029 
    127 H127      -49.6269  -21.5092   13.9976 H         1 UNK         0.0897 
    128 H128      -47.3292  -21.4786   12.9747 H         1 UNK         0.0792 
    129 H129      -47.3193  -22.1316   14.6055 H         1 UNK         0.0792 
    130 H130      -47.1984  -23.2186   13.2324 H         1 UNK         0.0792 
    131 H131      -49.0071  -22.8295   11.4900 H         1 UNK         0.3086 
    132 H132      -52.0692  -23.7749   10.6594 H         1 UNK         0.0583 
    133 H133      -53.1358  -21.6136   10.2937 H         1 UNK         0.1020 
    134 H134      -51.6990  -20.9798    9.5401 H         1 UNK         0.1020 
    135 H135      -54.4907  -23.6231    9.4441 H         1 UNK         0.0694 
    136 H136      -54.8667  -23.7772    7.7477 H         1 UNK         0.0694 
    137 H137      -50.1257  -23.0049    8.7547 H         1 UNK         0.2989 
    138 H138      -49.1483  -25.9321    8.2766 H         1 UNK         0.1055 
    139 H139      -47.4809  -24.4551    7.1123 H         1 UNK         0.0806 
    140 H140      -47.7999  -23.1768    8.2781 H         1 UNK         0.0806 
    141 H141      -49.0725  -23.7330    7.1873 H         1 UNK         0.0806 
    142 H142      -47.2940  -26.6847    9.2543 H         1 UNK         0.3061 
    143 H143      -44.7455  -25.4069   11.2610 H         1 UNK         0.0734 
    144 H144      -46.4646  -25.7855   13.0352 H         1 UNK         0.0832 
    145 H145      -47.0095  -27.2414   12.2146 H         1 UNK         0.0832 
    146 H146      -45.3844  -27.1632   12.8970 H         1 UNK         0.0832 
    147 H147      -45.6966  -28.0234   10.2971 H         1 UNK         0.3156 
    148 H148      -43.5509  -27.9785    7.4387 H         1 UNK         0.0589 
    149 H149      -43.6697  -29.7464    9.9418 H         1 UNK         0.0808 
    150 H150      -42.9571  -30.1809    8.3878 H         1 UNK         0.0808 
    151 H151      -42.2411  -28.9058    9.3572 H         1 UNK         0.0808 
    152 H152      -45.4826  -29.8863    8.1973 H         1 UNK         0.3098 
    153 H153      -47.1968  -30.1536    6.5214 H         1 UNK         0.0720 
    154 H154      -49.3389  -29.8506    7.7700 H         1 UNK         0.0791 
    155 H155      -47.9767  -29.7282    8.8660 H         1 UNK         0.0791 
    156 H156      -48.8145  -28.2730    8.3450 H         1 UNK         0.0791 
    157 H157      -48.7854  -27.7058    5.9333 H         1 UNK         0.3028 
@<TRIPOS>BOND
     1    1    2 1    
     2    1   82 1    
     3    1   83 1    
     4    1   84 1    
     5    2    3 2    
     6    2    4 am   BACKBONE|DICT|INTERRES
     7    4    5 1    
     8    4   85 1    
     9    5    6 1    
    10    5   80 1    
    11    5   86 1    
    12    6    7 1    
    13    6   87 1    
    14    6   88 1    
    15    7    8 1    
    16    8    9 1    
    17    8   89 1    
    18    8   90 1    
    19    9   10 ar   
    20    9   14 ar   
    21   10   11 ar   
    22   10   91 1    
    23   11   12 ar   
    24   11   58 1    
    25   12   13 ar   
    26   12   92 1    
    27   13   14 ar   
    28   13   15 1    
    29   14   93 1    
    30   15   16 1    
    31   15   94 1    
    32   15   95 1    
    33   16   17 1    
    34   17   18 1    
    35   17   96 1    
    36   17   97 1    
    37   18   19 1    
    38   18   22 1    
    39   18   98 1    
    40   19   20 am   BACKBONE|DICT|INTERRES
    41   19   21 2    
    42   20   99 1    
    43   20  100 1    
    44   22   23 am   BACKBONE|DICT|INTERRES
    45   22  101 1    
    46   23   24 2    
    47   23   25 1    
    48   25   26 1    
    49   25   27 1    
    50   25  102 1    
    51   26  103 1    
    52   26  104 1    
    53   26  105 1    
    54   27   28 am   BACKBONE|DICT|INTERRES
    55   27  106 1    
    56   28   29 2    
    57   28   30 1    
    58   30   31 1    
    59   30   32 1    
    60   30  107 1    
    61   31  108 1    
    62   31  109 1    
    63   31  110 1    
    64   32   33 am   BACKBONE|DICT|INTERRES
    65   32  111 1    
    66   33   34 2    
    67   33   35 1    
    68   35   36 1    
    69   35   37 1    
    70   35  112 1    
    71   36  113 1    
    72   36  114 1    
    73   36  115 1    
    74   37   38 am   BACKBONE|DICT|INTERRES
    75   37  116 1    
    76   38   39 2    
    77   38   40 1    
    78   40   41 1    
    79   40   42 1    
    80   40  117 1    
    81   41  118 1    
    82   41  119 1    
    83   41  120 1    
    84   42   43 am   BACKBONE|DICT|INTERRES
    85   42  121 1    
    86   43   44 2    
    87   43   45 1    
    88   45   46 1    
    89   45   47 1    
    90   45  122 1    
    91   46  123 1    
    92   46  124 1    
    93   46  125 1    
    94   47   48 am   BACKBONE|DICT|INTERRES
    95   47  126 1    
    96   48   49 2    
    97   48   50 1    
    98   50   51 1    
    99   50   52 1    
   100   50  127 1    
   101   51  128 1    
   102   51  129 1    
   103   51  130 1    
   104   52   53 am   BACKBONE|DICT|INTERRES
   105   52  131 1    
   106   53   54 2    
   107   53   55 1    
   108   55   56 1    
   109   55   59 1    
   110   55  132 1    
   111   56   57 1    
   112   56  133 1    
   113   56  134 1    
   114   57   58 1    
   115   58  135 1    
   116   58  136 1    
   117   59   60 am   BACKBONE|DICT|INTERRES
   118   59  137 1    
   119   60   61 2    
   120   60   62 1    
   121   62   63 1    
   122   62   64 1    
   123   62  138 1    
   124   63  139 1    
   125   63  140 1    
   126   63  141 1    
   127   64   65 am   BACKBONE|DICT|INTERRES
   128   64  142 1    
   129   65   66 2    
   130   65   67 1    
   131   67   68 1    
   132   67   69 1    
   133   67  143 1    
   134   68  144 1    
   135   68  145 1    
   136   68  146 1    
   137   69   70 am   BACKBONE|DICT|INTERRES
   138   69  147 1    
   139   70   71 2    
   140   70   72 1    
   141   72   73 1    
   142   72   74 1    
   143   72  148 1    
   144   73  149 1    
   145   73  150 1    
   146   73  151 1    
   147   74   75 am   BACKBONE|DICT|INTERRES
   148   74  152 1    
   149   75   76 2    
   150   75   77 1    
   151   77   78 1    
   152   77   79 1    
   153   77  153 1    
   154   78  154 1    
   155   78  155 1    
   156   78  156 1    
   157   79   80 am   BACKBONE|DICT|INTERRES
   158   79  157 1    
   159   80   81 2    
@<TRIPOS>SUBSTRUCTURE
     1 UNK         1 GROUP             0       ****    0 ROOT    
