@<TRIPOS>MOLECULE
3R207
157   159    1
SMALL
USER_CHARGES


@<TRIPOS>ATOM
      1 CA        -50.0900  -30.8770    2.1732 C.3       0 UNK        -0.1975 
      2 C         -50.0371  -29.7756    3.2223 C.2       0 UNK         0.4852 
      3 O         -49.2752  -29.8970    4.1815 O.2       0 UNK        -0.5216 
      4 N         -50.8419  -28.7184    3.0295 N.am      1 UNK        -0.4461 
      5 CA        -50.9988  -27.5138    3.8594 C.3       1 UNK         0.0864 
      6 C6        -52.0723  -27.6419    4.9813 C.3       14 UNK        -0.0898 
      7 S7        -51.8101  -28.9476    6.2319 S.3       14 UNK        -0.2598 
      8 C8        -51.8634  -27.9681    7.7639 C.3       14 UNK         0.0286 
      9 C9        -51.4591  -28.7918    8.9781 C.ar      14 UNK        -0.0844 
     10 C10       -50.1614  -29.3001    9.0794 C.ar      14 UNK        -0.0881 
     11 C11       -49.7626  -30.0262   10.2037 C.ar      14 UNK        -0.0643 
     12 C12       -50.6810  -30.2584   11.2317 C.ar      14 UNK        -0.0930 
     13 C13       -51.9868  -29.7635   11.1406 C.ar      14 UNK        -0.0827 
     14 C14       -52.3671  -29.0242   10.0149 C.ar      14 UNK        -0.1249 
     15 C15       -52.9730  -29.9890   12.2766 C.3       14 UNK         0.0141 
     16 S16       -54.4630  -30.8859   11.7429 S.3       14 UNK        -0.2313 
     17 C17       -55.5473  -30.6184   13.1874 C.3       14 UNK        -0.0915 
     18 CA        -56.5596  -29.4631   12.9565 C.3       13 UNK         0.0968 
     19 C         -57.6337  -29.3874   14.0806 C.2       13 UNK         0.5732 
     20 N         -57.9256  -28.2279   14.6612 N.am      13 UNK        -0.7310 
     21 O         -58.2415  -30.4009   14.4184 O.2       13 UNK        -0.5035 
     22 N         -55.8681  -28.1834   12.7500 N.am      13 UNK        -0.4233 
     23 C         -56.0563  -27.3552   11.7160 C.2       13 UNK         0.4989 
     24 O         -56.8004  -27.6080   10.7668 O.2       13 UNK        -0.4996 
     25 CA        -55.2766  -26.0216   11.7260 C.3       12 UNK         0.0216 
     26 CB        -56.0635  -24.8783   11.0517 C.3       12 UNK        -0.1964 
     27 N         -54.7961  -25.5961   13.0476 N.am      12 UNK        -0.4276 
     28 C         -55.5192  -25.3757   14.1532 C.2       12 UNK         0.5020 
     29 O         -56.7417  -25.5283   14.2137 O.2       12 UNK        -0.5489 
     30 CA        -54.7228  -24.9791   15.4136 C.3       11 UNK         0.0294 
     31 CB        -55.6268  -24.8335   16.6550 C.3       11 UNK        -0.2019 
     32 N         -53.6005  -25.8769   15.7307 N.am      11 UNK        -0.4493 
     33 C         -53.6145  -27.2188   15.8055 C.2       11 UNK         0.4932 
     34 O         -54.5697  -27.9132   15.4558 O.2       11 UNK        -0.5029 
     35 CA        -52.3644  -27.9120   16.3824 C.3       10 UNK         0.0280 
     36 CB        -52.0619  -29.2496   15.6886 C.3       10 UNK        -0.1976 
     37 N         -51.1689  -27.0679   16.3235 N.am      10 UNK        -0.4242 
     38 C         -50.6560  -26.3940   17.3615 C.2       10 UNK         0.5072 
     39 O         -51.1362  -26.4050   18.4956 O.2       10 UNK        -0.5224 
     40 CA        -49.4045  -25.5421   17.0881 C.3       9 UNK         0.0343 
     41 CB        -48.1400  -26.4145   17.1232 C.3       9 UNK        -0.2003 
     42 N         -49.4546  -24.8038   15.8232 N.am      9 UNK        -0.4272 
     43 C         -50.3733  -23.8779   15.5083 C.2       9 UNK         0.4988 
     44 O         -51.3194  -23.5690   16.2332 O.2       9 UNK        -0.5108 
     45 CA        -50.2287  -23.2076   14.1350 C.3       8 UNK         0.0248 
     46 CB        -49.0840  -22.1815   14.1265 C.3       8 UNK        -0.2001 
     47 N         -50.0189  -24.2010   13.0842 N.am      8 UNK        -0.4140 
     48 C         -50.9906  -24.9843   12.5979 C.2       8 UNK         0.5028 
     49 O         -52.1695  -24.9009   12.9354 O.2       8 UNK        -0.5428 
     50 CA        -50.5788  -26.0579   11.5825 C.3       7 UNK         0.0264 
     51 CB        -50.5997  -25.4780   10.1609 C.3       7 UNK        -0.1988 
     52 N         -49.2608  -26.6257   11.8721 N.am      7 UNK        -0.4454 
     53 C         -48.9953  -27.3795   12.9509 C.2       7 UNK         0.5027 
     54 O         -49.8338  -27.6588   13.8079 O.2       7 UNK        -0.5083 
     55 CA        -47.5394  -27.8450   13.1597 C.3       6 UNK         0.0844 
     56 C56       -47.2844  -29.2515   12.5631 C.3       14 UNK        -0.0967 
     57 S57       -47.1374  -29.2869   10.7400 S.3       14 UNK        -0.2604 
     58 C58       -48.3447  -30.5728   10.2825 C.3       14 UNK         0.0134 
     59 N         -46.5494  -26.8577   12.7216 N.am      6 UNK        -0.4116 
     60 C         -46.4509  -25.6045   13.1846 C.2       5 UNK         0.5034 
     61 O         -47.1648  -25.1480   14.0800 O.2       5 UNK        -0.5045 
     62 CA        -45.4369  -24.6707   12.4992 C.3       5 UNK         0.0224 
     63 CB        -44.4224  -25.3947   11.5831 C.3       5 UNK        -0.1978 
     64 N         -46.1261  -23.6022   11.7635 N.am      5 UNK        -0.4737 
     65 C         -47.0245  -23.7567   10.7790 C.2       4 UNK         0.5027 
     66 O         -47.3836  -24.8555   10.3502 O.2       4 UNK        -0.5211 
     67 CA        -47.6734  -22.4847   10.1970 C.3       4 UNK         0.0297 
     68 CB        -47.0438  -21.1573   10.6822 C.3       4 UNK        -0.1993 
     69 N         -47.7305  -22.5439    8.7322 N.am      4 UNK        -0.4486 
     70 C         -46.6908  -22.5732    7.8875 C.2       3 UNK         0.4961 
     71 O         -45.5095  -22.4933    8.2304 O.2       3 UNK        -0.5105 
     72 CA        -47.0388  -22.7657    6.4032 C.3       3 UNK         0.0299 
     73 CB        -45.9993  -22.1165    5.4708 C.3       3 UNK        -0.1972 
     74 N         -47.1209  -24.1940    6.1081 N.am      3 UNK        -0.4305 
     75 C         -48.1904  -24.9621    6.3453 C.2       2 UNK         0.5006 
     76 O         -49.2640  -24.5374    6.7810 O.2       2 UNK        -0.5106 
     77 CA        -48.0103  -26.4656    6.0865 C.3       2 UNK         0.0296 
     78 CB        -47.6260  -27.1844    7.3899 C.3       2 UNK        -0.2002 
     79 N         -49.2237  -27.0635    5.5248 N.am      2 UNK        -0.4032 
     80 C         -49.6579  -26.8632    4.2735 C.2       1 UNK         0.5000 
     81 O         -49.0415  -26.1946    3.4394 O.2       1 UNK        -0.5238 
     82 H82       -49.1075  -31.0116    1.7213 H         1 UNK         0.0889 
     83 H83       -50.8010  -30.6527    1.3781 H         1 UNK         0.0889 
     84 H84       -50.3848  -31.8191    2.6348 H         1 UNK         0.0889 
     85 H85       -51.4099  -28.7134    2.1938 H         1 UNK         0.3028 
     86 H86       -51.4209  -26.7863    3.1635 H         1 UNK         0.0864 
     87 H87       -53.0377  -27.8486    4.5170 H         1 UNK         0.0720 
     88 H88       -52.2023  -26.6776    5.4763 H         1 UNK         0.0720 
     89 H89       -52.8681  -27.5609    7.8896 H         1 UNK         0.0814 
     90 H90       -51.1948  -27.1129    7.6699 H         1 UNK         0.0814 
     91 H91       -49.4580  -29.1362    8.2771 H         1 UNK         0.1469 
     92 H92       -50.3773  -30.8204   12.1039 H         1 UNK         0.1381 
     93 H93       -53.3725  -28.6307    9.9511 H         1 UNK         0.1206 
     94 H94       -52.5097  -30.5641   13.0784 H         1 UNK         0.0813 
     95 H95       -53.2475  -29.0207   12.6955 H         1 UNK         0.0813 
     96 H96       -56.0726  -31.5578   13.3681 H         1 UNK         0.0638 
     97 H97       -54.9441  -30.4323   14.0778 H         1 UNK         0.0638 
     98 H98       -57.1264  -29.7145   12.0587 H         1 UNK         0.0568 
     99 H99       -57.4477  -27.3706   14.4009 H         1 UNK         0.3450 
    100 H100      -58.6303  -28.2060   15.3799 H         1 UNK         0.3450 
    101 H101      -55.2946  -27.8813   13.5302 H         1 UNK         0.2987 
    102 H102      -54.3799  -26.2002   11.1305 H         1 UNK         0.0766 
    103 H103      -57.0032  -24.6781   11.5678 H         1 UNK         0.0798 
    104 H104      -55.4851  -23.9545   11.0374 H         1 UNK         0.0798 
    105 H105      -56.3052  -25.1215   10.0164 H         1 UNK         0.0798 
    106 H106      -53.7892  -25.4150   13.1018 H         1 UNK         0.3198 
    107 H107      -54.2850  -24.0018   15.2029 H         1 UNK         0.0843 
    108 H108      -56.4229  -24.1091   16.4784 H         1 UNK         0.0831 
    109 H109      -55.0610  -24.4869   17.5198 H         1 UNK         0.0831 
    110 H110      -56.0994  -25.7802   16.9201 H         1 UNK         0.0831 
    111 H111      -52.7435  -25.4071   15.9954 H         1 UNK         0.3133 
    112 H112      -52.6058  -28.1417   17.4219 H         1 UNK         0.0566 
    113 H113      -51.2363  -29.7680   16.1763 H         1 UNK         0.0814 
    114 H114      -52.9217  -29.9202   15.7114 H         1 UNK         0.0814 
    115 H115      -51.7852  -29.0955   14.6486 H         1 UNK         0.0814 
    116 H116      -50.6896  -27.0374   15.4259 H         1 UNK         0.3091 
    117 H117      -49.3284  -24.8038   17.8890 H         1 UNK         0.0702 
    118 H118      -47.2392  -25.8159   16.9853 H         1 UNK         0.0785 
    119 H119      -48.1576  -27.1780   16.3457 H         1 UNK         0.0785 
    120 H120      -48.0462  -26.9271   18.0815 H         1 UNK         0.0785 
    121 H121      -48.6948  -24.9754   15.1688 H         1 UNK         0.2998 
    122 H122      -51.1576  -22.6718   13.9264 H         1 UNK         0.0697 
    123 H123      -48.1106  -22.6473   14.2818 H         1 UNK         0.0825 
    124 H124      -49.2200  -21.4419   14.9167 H         1 UNK         0.0825 
    125 H125      -49.0516  -21.6392   13.1821 H         1 UNK         0.0825 
    126 H126      -49.0657  -24.3881   12.8076 H         1 UNK         0.3029 
    127 H127      -51.3064  -26.8702   11.6358 H         1 UNK         0.0897 
    128 H128      -50.1554  -26.1680    9.4475 H         1 UNK         0.0792 
    129 H129      -50.0486  -24.5408   10.0902 H         1 UNK         0.0792 
    130 H130      -51.6221  -25.2789    9.8380 H         1 UNK         0.0792 
    131 H131      -48.5070  -26.3841   11.2362 H         1 UNK         0.3086 
    132 H132      -47.4087  -27.9385   14.2391 H         1 UNK         0.0583 
    133 H133      -46.3528  -29.6475   12.9703 H         1 UNK         0.1020 
    134 H134      -48.0569  -29.9483   12.8939 H         1 UNK         0.1020 
    135 H135      -48.0651  -30.9775    9.3086 H         1 UNK         0.0694 
    136 H136      -48.2847  -31.4081   10.9818 H         1 UNK         0.0694 
    137 H137      -45.9661  -27.1330   11.9448 H         1 UNK         0.2989 
    138 H138      -44.8760  -24.1928   13.3042 H         1 UNK         0.1055 
    139 H139      -43.8750  -26.1642   12.1293 H         1 UNK         0.0806 
    140 H140      -43.6823  -24.6938   11.1966 H         1 UNK         0.0806 
    141 H141      -44.8978  -25.8687   10.7234 H         1 UNK         0.0806 
    142 H142      -45.9130  -22.6605   12.0615 H         1 UNK         0.3061 
    143 H143      -48.7088  -22.4954   10.5401 H         1 UNK         0.0734 
    144 H144      -47.5427  -20.3009   10.2285 H         1 UNK         0.0832 
    145 H145      -47.1395  -21.0397   11.7618 H         1 UNK         0.0832 
    146 H146      -45.9839  -21.0873   10.4348 H         1 UNK         0.0832 
    147 H147      -48.6456  -22.7235    8.3384 H         1 UNK         0.3156 
    148 H148      -48.0037  -22.2932    6.2050 H         1 UNK         0.0589 
    149 H149      -45.0108  -22.5633    5.5850 H         1 UNK         0.0808 
    150 H150      -46.2911  -22.2137    4.4249 H         1 UNK         0.0808 
    151 H151      -45.9011  -21.0507    5.6816 H         1 UNK         0.0808 
    152 H152      -46.2680  -24.6333    5.7919 H         1 UNK         0.3098 
    153 H153      -47.2017  -26.6084    5.3661 H         1 UNK         0.0720 
    154 H154      -47.4820  -28.2531    7.2306 H         1 UNK         0.0791 
    155 H155      -48.3812  -27.0504    8.1640 H         1 UNK         0.0791 
    156 H156      -46.6912  -26.7905    7.7914 H         1 UNK         0.0791 
    157 H157      -49.7790  -27.6550    6.1264 H         1 UNK         0.3028 
@<TRIPOS>BOND
     1    1    2 1    
     2    1   82 1    
     3    1   83 1    
     4    1   84 1    
     5    2    3 2    
     6    2    4 am   BACKBONE|DICT|INTERRES
     7    4    5 1    
     8    4   85 1    
     9    5    6 1    
    10    5   80 1    
    11    5   86 1    
    12    6    7 1    
    13    6   87 1    
    14    6   88 1    
    15    7    8 1    
    16    8    9 1    
    17    8   89 1    
    18    8   90 1    
    19    9   10 ar   
    20    9   14 ar   
    21   10   11 ar   
    22   10   91 1    
    23   11   12 ar   
    24   11   58 1    
    25   12   13 ar   
    26   12   92 1    
    27   13   14 ar   
    28   13   15 1    
    29   14   93 1    
    30   15   16 1    
    31   15   94 1    
    32   15   95 1    
    33   16   17 1    
    34   17   18 1    
    35   17   96 1    
    36   17   97 1    
    37   18   19 1    
    38   18   22 1    
    39   18   98 1    
    40   19   20 am   BACKBONE|DICT|INTERRES
    41   19   21 2    
    42   20   99 1    
    43   20  100 1    
    44   22   23 am   BACKBONE|DICT|INTERRES
    45   22  101 1    
    46   23   24 2    
    47   23   25 1    
    48   25   26 1    
    49   25   27 1    
    50   25  102 1    
    51   26  103 1    
    52   26  104 1    
    53   26  105 1    
    54   27   28 am   BACKBONE|DICT|INTERRES
    55   27  106 1    
    56   28   29 2    
    57   28   30 1    
    58   30   31 1    
    59   30   32 1    
    60   30  107 1    
    61   31  108 1    
    62   31  109 1    
    63   31  110 1    
    64   32   33 am   BACKBONE|DICT|INTERRES
    65   32  111 1    
    66   33   34 2    
    67   33   35 1    
    68   35   36 1    
    69   35   37 1    
    70   35  112 1    
    71   36  113 1    
    72   36  114 1    
    73   36  115 1    
    74   37   38 am   BACKBONE|DICT|INTERRES
    75   37  116 1    
    76   38   39 2    
    77   38   40 1    
    78   40   41 1    
    79   40   42 1    
    80   40  117 1    
    81   41  118 1    
    82   41  119 1    
    83   41  120 1    
    84   42   43 am   BACKBONE|DICT|INTERRES
    85   42  121 1    
    86   43   44 2    
    87   43   45 1    
    88   45   46 1    
    89   45   47 1    
    90   45  122 1    
    91   46  123 1    
    92   46  124 1    
    93   46  125 1    
    94   47   48 am   BACKBONE|DICT|INTERRES
    95   47  126 1    
    96   48   49 2    
    97   48   50 1    
    98   50   51 1    
    99   50   52 1    
   100   50  127 1    
   101   51  128 1    
   102   51  129 1    
   103   51  130 1    
   104   52   53 am   BACKBONE|DICT|INTERRES
   105   52  131 1    
   106   53   54 2    
   107   53   55 1    
   108   55   56 1    
   109   55   59 1    
   110   55  132 1    
   111   56   57 1    
   112   56  133 1    
   113   56  134 1    
   114   57   58 1    
   115   58  135 1    
   116   58  136 1    
   117   59   60 am   BACKBONE|DICT|INTERRES
   118   59  137 1    
   119   60   61 2    
   120   60   62 1    
   121   62   63 1    
   122   62   64 1    
   123   62  138 1    
   124   63  139 1    
   125   63  140 1    
   126   63  141 1    
   127   64   65 am   BACKBONE|DICT|INTERRES
   128   64  142 1    
   129   65   66 2    
   130   65   67 1    
   131   67   68 1    
   132   67   69 1    
   133   67  143 1    
   134   68  144 1    
   135   68  145 1    
   136   68  146 1    
   137   69   70 am   BACKBONE|DICT|INTERRES
   138   69  147 1    
   139   70   71 2    
   140   70   72 1    
   141   72   73 1    
   142   72   74 1    
   143   72  148 1    
   144   73  149 1    
   145   73  150 1    
   146   73  151 1    
   147   74   75 am   BACKBONE|DICT|INTERRES
   148   74  152 1    
   149   75   76 2    
   150   75   77 1    
   151   77   78 1    
   152   77   79 1    
   153   77  153 1    
   154   78  154 1    
   155   78  155 1    
   156   78  156 1    
   157   79   80 am   BACKBONE|DICT|INTERRES
   158   79  157 1    
   159   80   81 2    
@<TRIPOS>SUBSTRUCTURE
     1 UNK         1 GROUP             0       ****    0 ROOT    
