@<TRIPOS>MOLECULE
3R207
157   159    1
SMALL
USER_CHARGES


@<TRIPOS>ATOM
      1 CA        -47.7004  -27.2423    3.0733 C.3       0 UNK        -0.1975 
      2 C         -48.4500  -26.0442    3.6358 C.2       0 UNK         0.4852 
      3 O         -48.0242  -24.9057    3.4351 O.2       0 UNK        -0.5216 
      4 N         -49.5625  -26.2866    4.3418 N.am      1 UNK        -0.4461 
      5 CA        -50.3439  -25.2632    5.0428 C.3       1 UNK         0.0864 
      6 C6        -51.7280  -25.7907    5.5100 C.3       14 UNK        -0.0898 
      7 S7        -51.6840  -27.3729    6.4258 S.3       14 UNK        -0.2598 
      8 C8        -51.8913  -26.7848    8.1392 C.3       14 UNK         0.0286 
      9 C9        -51.5765  -27.8484    9.1871 C.ar      14 UNK        -0.0844 
     10 C10       -50.4330  -28.6490    9.0771 C.ar      14 UNK        -0.0881 
     11 C11       -50.1334  -29.6055   10.0514 C.ar      14 UNK        -0.0643 
     12 C12       -50.9667  -29.7340   11.1647 C.ar      14 UNK        -0.0930 
     13 C13       -52.1090  -28.9382   11.2926 C.ar      14 UNK        -0.0827 
     14 C14       -52.4143  -28.0041   10.2975 C.ar      14 UNK        -0.1249 
     15 C15       -53.0107  -29.1054   12.5053 C.3       14 UNK         0.0141 
     16 S16       -54.0100  -30.6150   12.3504 S.3       14 UNK        -0.2313 
     17 C17       -54.7454  -30.7459   14.0128 C.3       14 UNK        -0.0915 
     18 CA        -56.2942  -30.6873   13.9609 C.3       13 UNK         0.0968 
     19 C         -56.9391  -31.1862   15.2886 C.2       13 UNK         0.5732 
     20 N         -57.8609  -30.4644   15.9151 N.am      13 UNK        -0.7310 
     21 O         -56.6099  -32.2736   15.7573 O.2       13 UNK        -0.5035 
     22 N         -56.7621  -29.3616   13.5307 N.am      13 UNK        -0.4233 
     23 C         -57.8568  -29.1387   12.7907 C.2       13 UNK         0.4989 
     24 O         -58.5380  -30.0365   12.2914 O.2       13 UNK        -0.4996 
     25 CA        -58.2700  -27.6617   12.5932 C.3       12 UNK         0.0216 
     26 CB        -59.7543  -27.5036   12.1990 C.3       12 UNK        -0.1964 
     27 N         -57.9505  -26.8133   13.7510 N.am      12 UNK        -0.4276 
     28 C         -58.3278  -27.0121   15.0236 C.2       12 UNK         0.5020 
     29 O         -59.1152  -27.8955   15.3669 O.2       12 UNK        -0.5489 
     30 CA        -57.6824  -26.1185   16.1030 C.3       11 UNK         0.0294 
     31 CB        -57.4784  -26.8851   17.4274 C.3       11 UNK        -0.2019 
     32 N         -56.4212  -25.4699   15.7091 N.am      11 UNK        -0.4493 
     33 C         -55.2844  -26.0476   15.2864 C.2       11 UNK         0.4932 
     34 O         -55.1816  -27.2470   15.0147 O.2       11 UNK        -0.5029 
     35 CA        -54.0756  -25.1095   15.0776 C.3       10 UNK         0.0280 
     36 CB        -54.1948  -23.7557   15.8148 C.3       10 UNK        -0.1976 
     37 N         -52.7876  -25.7306   15.4002 N.am      10 UNK        -0.4242 
     38 C         -52.4195  -26.3141   16.5537 C.2       10 UNK         0.5072 
     39 O         -53.1591  -26.4578   17.5287 O.2       10 UNK        -0.5224 
     40 CA        -50.9568  -26.7919   16.6575 C.3       9 UNK         0.0343 
     41 CB        -50.8436  -28.2752   16.2732 C.3       9 UNK        -0.2003 
     42 N         -50.0335  -26.0021   15.8364 N.am      9 UNK        -0.4272 
     43 C         -49.7347  -24.7124   16.0672 C.2       9 UNK         0.4988 
     44 O         -50.1005  -24.1010   17.0719 O.2       9 UNK        -0.5108 
     45 CA        -48.9134  -23.9559   15.0032 C.3       8 UNK         0.0248 
     46 CB        -47.4507  -23.8188   15.4551 C.3       8 UNK        -0.2001 
     47 N         -48.9471  -24.5539   13.6653 N.am      8 UNK        -0.4140 
     48 C         -50.0511  -24.7640   12.9293 C.2       8 UNK         0.5028 
     49 O         -51.1799  -24.4175   13.2759 O.2       8 UNK        -0.5428 
     50 CA        -49.8856  -25.5350   11.6075 C.3       7 UNK         0.0264 
     51 CB        -49.7362  -24.5417   10.4468 C.3       7 UNK        -0.1988 
     52 N         -48.7453  -26.4524   11.5762 N.am      7 UNK        -0.4454 
     53 C         -48.4378  -27.3971   12.4783 C.2       7 UNK         0.5027 
     54 O         -49.1553  -27.6900   13.4361 O.2       7 UNK        -0.5083 
     55 CA        -47.0459  -28.0559   12.3464 C.3       6 UNK         0.0844 
     56 C56       -47.1434  -29.5172   11.8400 C.3       14 UNK        -0.0967 
     57 S57       -47.3507  -29.6675   10.0308 S.3       14 UNK        -0.2604 
     58 C58       -48.9408  -30.5327    9.8717 C.3       14 UNK         0.0134 
     59 N         -46.0853  -27.2554   11.5691 N.am      6 UNK        -0.4116 
     60 C         -45.6930  -26.0014   11.8339 C.2       5 UNK         0.5034 
     61 O         -46.0450  -25.3811   12.8380 O.2       5 UNK        -0.5045 
     62 CA        -44.8389  -25.2781   10.7761 C.3       5 UNK         0.0224 
     63 CB        -43.3344  -25.4537   11.0592 C.3       5 UNK        -0.1978 
     64 N         -45.1766  -25.6013    9.3777 N.am      5 UNK        -0.4737 
     65 C         -44.9800  -26.7461    8.7032 C.2       4 UNK         0.5027 
     66 O         -44.4907  -27.7543    9.2112 O.2       4 UNK        -0.5211 
     67 CA        -45.4249  -26.7994    7.2277 C.3       4 UNK         0.0297 
     68 CB        -46.6247  -27.7449    7.0569 C.3       4 UNK        -0.1993 
     69 N         -45.7641  -25.4859    6.6718 N.am      4 UNK        -0.4486 
     70 C         -44.8562  -24.5675    6.3045 C.2       3 UNK         0.4961 
     71 O         -43.6411  -24.7583    6.3642 O.2       3 UNK        -0.5105 
     72 CA        -45.3620  -23.2047    5.7923 C.3       3 UNK         0.0299 
     73 CB        -45.0882  -23.0568    4.2865 C.3       3 UNK        -0.1972 
     74 N         -46.7824  -22.9572    6.0505 N.am      3 UNK        -0.4305 
     75 C         -47.3107  -22.7107    7.2587 C.2       2 UNK         0.5006 
     76 O         -46.6485  -22.6596    8.2960 O.2       2 UNK        -0.5106 
     77 CA        -48.8404  -22.5324    7.3305 C.3       2 UNK         0.0296 
     78 CB        -49.2131  -21.0467    7.2046 C.3       2 UNK        -0.2002 
     79 N         -49.5903  -23.3102    6.3349 N.am      2 UNK        -0.4032 
     80 C         -49.5222  -24.6422    6.1926 C.2       1 UNK         0.5000 
     81 O         -48.8197  -25.3647    6.9040 O.2       1 UNK        -0.5238 
     82 H82       -48.1641  -28.1852    3.3627 H         1 UNK         0.0889 
     83 H83       -46.6730  -27.2438    3.4366 H         1 UNK         0.0889 
     84 H84       -47.6778  -27.1932    1.9851 H         1 UNK         0.0889 
     85 H85       -49.8559  -27.2381    4.5128 H         1 UNK         0.3028 
     86 H86       -50.5354  -24.4688    4.3178 H         1 UNK         0.0864 
     87 H87       -52.2549  -25.0356    6.0967 H         1 UNK         0.0720 
     88 H88       -52.3539  -25.9545    4.6314 H         1 UNK         0.0720 
     89 H89       -52.9126  -26.4195    8.2574 H         1 UNK         0.0814 
     90 H90       -51.2374  -25.9316    8.3062 H         1 UNK         0.0814 
     91 H91       -49.7767  -28.5362    8.2249 H         1 UNK         0.1469 
     92 H92       -50.7409  -30.4683   11.9257 H         1 UNK         0.1381 
     93 H93       -53.2979  -27.3884   10.3964 H         1 UNK         0.1206 
     94 H94       -52.3973  -29.1640   13.4044 H         1 UNK         0.0813 
     95 H95       -53.6675  -28.2429   12.6307 H         1 UNK         0.0813 
     96 H96       -54.3532  -29.9653   14.6673 H         1 UNK         0.0638 
     97 H97       -54.4022  -31.6937   14.4312 H         1 UNK         0.0638 
     98 H98       -56.6121  -31.4190   13.2160 H         1 UNK         0.0568 
     99 H99       -58.2607  -30.8256   16.7658 H         1 UNK         0.3450 
    100 H100      -58.1922  -29.5780   15.5474 H         1 UNK         0.3450 
    101 H101      -56.2699  -28.5737   13.9398 H         1 UNK         0.2987 
    102 H102      -57.6660  -27.2905   11.7640 H         1 UNK         0.0766 
    103 H103      -60.0159  -26.4562   12.0494 H         1 UNK         0.0798 
    104 H104      -60.4202  -27.9098   12.9612 H         1 UNK         0.0798 
    105 H105      -59.9708  -28.0259   11.2662 H         1 UNK         0.0798 
    106 H106      -57.2902  -26.0677   13.5806 H         1 UNK         0.3198 
    107 H107      -58.3965  -25.3151   16.2903 H         1 UNK         0.0843 
    108 H108      -56.8168  -27.7427   17.2970 H         1 UNK         0.0831 
    109 H109      -58.4248  -27.2604   17.8187 H         1 UNK         0.0831 
    110 H110      -57.0459  -26.2439   18.1955 H         1 UNK         0.0831 
    111 H111      -56.3949  -24.4697   15.8544 H         1 UNK         0.3133 
    112 H112      -54.0405  -24.8998   14.0077 H         1 UNK         0.0566 
    113 H113      -53.2998  -23.1511   15.6638 H         1 UNK         0.0814 
    114 H114      -55.0340  -23.1653   15.4457 H         1 UNK         0.0814 
    115 H115      -54.3214  -23.8891   16.8903 H         1 UNK         0.0814 
    116 H116      -52.0832  -25.6245   14.6779 H         1 UNK         0.3091 
    117 H117      -50.6509  -26.6882   17.7007 H         1 UNK         0.0702 
    118 H118      -49.8294  -28.6470   16.4201 H         1 UNK         0.0785 
    119 H119      -51.1110  -28.4406   15.2299 H         1 UNK         0.0785 
    120 H120      -51.5077  -28.8896   16.8828 H         1 UNK         0.0785 
    121 H121      -49.6819  -26.4481   14.9946 H         1 UNK         0.2998 
    122 H122      -49.3419  -22.9551   14.9202 H         1 UNK         0.0697 
    123 H123      -46.9608  -24.7905   15.5314 H         1 UNK         0.0825 
    124 H124      -47.3849  -23.3414   16.4338 H         1 UNK         0.0825 
    125 H125      -46.8748  -23.2087   14.7588 H         1 UNK         0.0825 
    126 H126      -48.0573  -24.8768   13.3004 H         1 UNK         0.3029 
    127 H127      -50.7866  -26.1296   11.4579 H         1 UNK         0.0897 
    128 H128      -50.6402  -23.9435   10.3255 H         1 UNK         0.0792 
    129 H129      -49.5510  -25.0548    9.5045 H         1 UNK         0.0792 
    130 H130      -48.9059  -23.8532   10.6119 H         1 UNK         0.0792 
    131 H131      -48.0918  -26.3178   10.8196 H         1 UNK         0.3086 
    132 H132      -46.6493  -28.0968   13.3629 H         1 UNK         0.0583 
    133 H133      -46.2230  -30.0423   12.0996 H         1 UNK         0.1020 
    134 H134      -47.9361  -30.0592   12.3600 H         1 UNK         0.1020 
    135 H135      -48.9922  -30.9764    8.8764 H         1 UNK         0.0694 
    136 H136      -48.9775  -31.3665   10.5745 H         1 UNK         0.0694 
    137 H137      -45.7192  -27.6895   10.7262 H         1 UNK         0.2989 
    138 H138      -45.0641  -24.2154   10.8847 H         1 UNK         0.1055 
    139 H139      -43.0831  -25.0894   12.0562 H         1 UNK         0.0806 
    140 H140      -42.7292  -24.8922   10.3473 H         1 UNK         0.0806 
    141 H141      -43.0259  -26.4983   11.0118 H         1 UNK         0.0806 
    142 H142      -45.6130  -24.8451    8.8642 H         1 UNK         0.3061 
    143 H143      -44.5920  -27.2097    6.6526 H         1 UNK         0.0734 
    144 H144      -46.9847  -27.7586    6.0289 H         1 UNK         0.0832 
    145 H145      -46.3498  -28.7680    7.3154 H         1 UNK         0.0832 
    146 H146      -47.4578  -27.4615    7.7011 H         1 UNK         0.0832 
    147 H147      -46.7532  -25.2628    6.6151 H         1 UNK         0.3156 
    148 H148      -44.7896  -22.4347    6.3140 H         1 UNK         0.0589 
    149 H149      -45.6122  -23.8145    3.7036 H         1 UNK         0.0808 
    150 H150      -45.3945  -22.0771    3.9194 H         1 UNK         0.0808 
    151 H151      -44.0239  -23.1626    4.0713 H         1 UNK         0.0808 
    152 H152      -47.4025  -23.0237    5.2547 H         1 UNK         0.3098 
    153 H153      -49.1580  -22.8744    8.3152 H         1 UNK         0.0720 
    154 H154      -50.2805  -20.8896    7.3617 H         1 UNK         0.0791 
    155 H155      -48.9538  -20.6459    6.2238 H         1 UNK         0.0791 
    156 H156      -48.6876  -20.4481    7.9503 H         1 UNK         0.0791 
    157 H157      -50.1829  -22.7832    5.7091 H         1 UNK         0.3028 
@<TRIPOS>BOND
     1    1    2 1    
     2    1   82 1    
     3    1   83 1    
     4    1   84 1    
     5    2    3 2    
     6    2    4 am   BACKBONE|DICT|INTERRES
     7    4    5 1    
     8    4   85 1    
     9    5    6 1    
    10    5   80 1    
    11    5   86 1    
    12    6    7 1    
    13    6   87 1    
    14    6   88 1    
    15    7    8 1    
    16    8    9 1    
    17    8   89 1    
    18    8   90 1    
    19    9   10 ar   
    20    9   14 ar   
    21   10   11 ar   
    22   10   91 1    
    23   11   12 ar   
    24   11   58 1    
    25   12   13 ar   
    26   12   92 1    
    27   13   14 ar   
    28   13   15 1    
    29   14   93 1    
    30   15   16 1    
    31   15   94 1    
    32   15   95 1    
    33   16   17 1    
    34   17   18 1    
    35   17   96 1    
    36   17   97 1    
    37   18   19 1    
    38   18   22 1    
    39   18   98 1    
    40   19   20 am   BACKBONE|DICT|INTERRES
    41   19   21 2    
    42   20   99 1    
    43   20  100 1    
    44   22   23 am   BACKBONE|DICT|INTERRES
    45   22  101 1    
    46   23   24 2    
    47   23   25 1    
    48   25   26 1    
    49   25   27 1    
    50   25  102 1    
    51   26  103 1    
    52   26  104 1    
    53   26  105 1    
    54   27   28 am   BACKBONE|DICT|INTERRES
    55   27  106 1    
    56   28   29 2    
    57   28   30 1    
    58   30   31 1    
    59   30   32 1    
    60   30  107 1    
    61   31  108 1    
    62   31  109 1    
    63   31  110 1    
    64   32   33 am   BACKBONE|DICT|INTERRES
    65   32  111 1    
    66   33   34 2    
    67   33   35 1    
    68   35   36 1    
    69   35   37 1    
    70   35  112 1    
    71   36  113 1    
    72   36  114 1    
    73   36  115 1    
    74   37   38 am   BACKBONE|DICT|INTERRES
    75   37  116 1    
    76   38   39 2    
    77   38   40 1    
    78   40   41 1    
    79   40   42 1    
    80   40  117 1    
    81   41  118 1    
    82   41  119 1    
    83   41  120 1    
    84   42   43 am   BACKBONE|DICT|INTERRES
    85   42  121 1    
    86   43   44 2    
    87   43   45 1    
    88   45   46 1    
    89   45   47 1    
    90   45  122 1    
    91   46  123 1    
    92   46  124 1    
    93   46  125 1    
    94   47   48 am   BACKBONE|DICT|INTERRES
    95   47  126 1    
    96   48   49 2    
    97   48   50 1    
    98   50   51 1    
    99   50   52 1    
   100   50  127 1    
   101   51  128 1    
   102   51  129 1    
   103   51  130 1    
   104   52   53 am   BACKBONE|DICT|INTERRES
   105   52  131 1    
   106   53   54 2    
   107   53   55 1    
   108   55   56 1    
   109   55   59 1    
   110   55  132 1    
   111   56   57 1    
   112   56  133 1    
   113   56  134 1    
   114   57   58 1    
   115   58  135 1    
   116   58  136 1    
   117   59   60 am   BACKBONE|DICT|INTERRES
   118   59  137 1    
   119   60   61 2    
   120   60   62 1    
   121   62   63 1    
   122   62   64 1    
   123   62  138 1    
   124   63  139 1    
   125   63  140 1    
   126   63  141 1    
   127   64   65 am   BACKBONE|DICT|INTERRES
   128   64  142 1    
   129   65   66 2    
   130   65   67 1    
   131   67   68 1    
   132   67   69 1    
   133   67  143 1    
   134   68  144 1    
   135   68  145 1    
   136   68  146 1    
   137   69   70 am   BACKBONE|DICT|INTERRES
   138   69  147 1    
   139   70   71 2    
   140   70   72 1    
   141   72   73 1    
   142   72   74 1    
   143   72  148 1    
   144   73  149 1    
   145   73  150 1    
   146   73  151 1    
   147   74   75 am   BACKBONE|DICT|INTERRES
   148   74  152 1    
   149   75   76 2    
   150   75   77 1    
   151   77   78 1    
   152   77   79 1    
   153   77  153 1    
   154   78  154 1    
   155   78  155 1    
   156   78  156 1    
   157   79   80 am   BACKBONE|DICT|INTERRES
   158   79  157 1    
   159   80   81 2    
@<TRIPOS>SUBSTRUCTURE
     1 UNK         1 GROUP             0       ****    0 ROOT    
