@<TRIPOS>MOLECULE
3R207
157   159    1
SMALL
USER_CHARGES


@<TRIPOS>ATOM
      1 CA        -54.1255  -29.6058    4.8161 C.3       0 UNK        -0.1975 
      2 C         -53.1090  -28.8060    5.6176 C.2       0 UNK         0.4852 
      3 O         -53.3264  -27.6192    5.8651 O.2       0 UNK        -0.5216 
      4 N         -52.0116  -29.4531    6.0301 N.am      1 UNK        -0.4461 
      5 CA        -50.9386  -28.8624    6.8381 C.3       1 UNK         0.0864 
      6 C6        -50.0152  -29.9382    7.4775 C.3       14 UNK        -0.0898 
      7 S7        -50.8939  -31.3611    8.2166 S.3       14 UNK        -0.2598 
      8 C8        -51.2584  -30.7794    9.9050 C.3       14 UNK         0.0286 
      9 C9        -52.2689  -29.6402    9.9156 C.ar      14 UNK        -0.0844 
     10 C10       -51.9252  -28.3991   10.4574 C.ar      14 UNK        -0.0881 
     11 C11       -52.8309  -27.3352   10.4199 C.ar      14 UNK        -0.0643 
     12 C12       -54.0967  -27.5244    9.8596 C.ar      14 UNK        -0.0930 
     13 C13       -54.4621  -28.7685    9.3367 C.ar      14 UNK        -0.0827 
     14 C14       -53.5427  -29.8199    9.3667 C.ar      14 UNK        -0.1249 
     15 C15       -55.8388  -28.9574    8.7163 C.3       14 UNK         0.0141 
     16 S16       -57.1321  -28.9441    9.9960 S.3       14 UNK        -0.2313 
     17 C17       -57.8098  -30.6443    9.9465 C.3       14 UNK        -0.0915 
     18 CA        -56.8766  -31.8098   10.4193 C.3       13 UNK         0.0968 
     19 C         -56.1851  -32.6067    9.2786 C.2       13 UNK         0.5732 
     20 N         -56.9069  -32.9637    8.2251 N.am      13 UNK        -0.7310 
     21 O         -55.0035  -32.9390    9.3499 O.2       13 UNK        -0.5035 
     22 N         -55.9137  -31.4059   11.4487 N.am      13 UNK        -0.4233 
     23 C         -56.1932  -31.1647   12.7306 C.2       13 UNK         0.4989 
     24 O         -57.3068  -31.3076   13.2366 O.2       13 UNK        -0.4996 
     25 CA        -55.0444  -30.6166   13.5805 C.3       12 UNK         0.0216 
     26 CB        -53.6742  -31.2514   13.2640 C.3       12 UNK        -0.1964 
     27 N         -54.9945  -29.1711   13.3798 N.am      12 UNK        -0.4276 
     28 C         -54.6319  -28.2864   14.3120 C.2       12 UNK         0.5020 
     29 O         -54.2571  -28.5936   15.4464 O.2       12 UNK        -0.5489 
     30 CA        -54.7391  -26.8072   13.9252 C.3       11 UNK         0.0294 
     31 CB        -56.1877  -26.3052   14.0812 C.3       11 UNK        -0.2019 
     32 N         -53.8340  -26.0357   14.7734 N.am      11 UNK        -0.4493 
     33 C         -53.4200  -24.7831   14.5580 C.2       11 UNK         0.4932 
     34 O         -53.7754  -24.1025   13.5960 O.2       11 UNK        -0.5029 
     35 CA        -52.4224  -24.1884   15.5679 C.3       10 UNK         0.0280 
     36 CB        -53.0539  -23.9845   16.9605 C.3       10 UNK        -0.1976 
     37 N         -51.1554  -24.9308   15.6226 N.am      10 UNK        -0.4242 
     38 C         -50.9388  -26.1668   16.0965 C.2       10 UNK         0.5072 
     39 O         -51.7933  -26.8355   16.6776 O.2       10 UNK        -0.5224 
     40 CA        -49.5583  -26.7987   15.8528 C.3       9 UNK         0.0343 
     41 CB        -49.6168  -27.7317   14.6303 C.3       9 UNK        -0.2003 
     42 N         -48.4637  -25.8414   15.6724 N.am      9 UNK        -0.4272 
     43 C         -47.8943  -25.1386   16.6624 C.2       9 UNK         0.4988 
     44 O         -48.3074  -25.1334   17.8223 O.2       9 UNK        -0.5108 
     45 CA        -46.6354  -24.3295   16.3110 C.3       8 UNK         0.0248 
     46 CB        -45.4189  -25.2607   16.1735 C.3       8 UNK        -0.2001 
     47 N         -46.8122  -23.5800   15.0675 N.am      8 UNK        -0.4140 
     48 C         -47.0245  -22.2580   14.9936 C.2       8 UNK         0.5028 
     49 O         -47.0045  -21.5036   15.9674 O.2       8 UNK        -0.5428 
     50 CA        -47.3277  -21.6647   13.6013 C.3       7 UNK         0.0264 
     51 CB        -46.0388  -21.1236   12.9613 C.3       7 UNK        -0.1988 
     52 N         -47.9703  -22.5992   12.6705 N.am      7 UNK        -0.4454 
     53 C         -49.1201  -23.2490   12.9042 C.2       7 UNK         0.5027 
     54 O         -49.8143  -23.0601   13.9016 O.2       7 UNK        -0.5083 
     55 CA        -49.5367  -24.3563   11.9182 C.3       6 UNK         0.0844 
     56 C56       -50.6098  -23.8421   10.9295 C.3       14 UNK        -0.0967 
     57 S57       -51.2520  -25.1627    9.8516 S.3       14 UNK        -0.2604 
     58 C58       -52.4265  -25.9798   10.9705 C.3       14 UNK         0.0134 
     59 N         -48.4004  -25.0137   11.2600 N.am      6 UNK        -0.4116 
     60 C         -47.4274  -25.6871   11.8930 C.2       5 UNK         0.5034 
     61 O         -47.3443  -25.7805   13.1178 O.2       5 UNK        -0.5045 
     62 CA        -46.3435  -26.3278   11.0191 C.3       5 UNK         0.0224 
     63 CB        -46.8695  -27.5973   10.3270 C.3       5 UNK        -0.1978 
     64 N         -45.8583  -25.3713   10.0252 N.am      5 UNK        -0.4737 
     65 C         -44.9242  -24.4423   10.2736 C.2       4 UNK         0.5027 
     66 O         -44.2978  -24.3692   11.3306 O.2       4 UNK        -0.5211 
     67 CA        -44.6464  -23.4079    9.1673 C.3       4 UNK         0.0297 
     68 CB        -43.4851  -23.8761    8.2759 C.3       4 UNK        -0.1993 
     69 N         -45.8131  -23.1168    8.3296 N.am      4 UNK        -0.4486 
     70 C         -46.9373  -22.5288    8.7621 C.2       3 UNK         0.4961 
     71 O         -47.1095  -22.1391    9.9165 O.2       3 UNK        -0.5105 
     72 CA        -48.0873  -22.4074    7.7463 C.3       3 UNK         0.0299 
     73 CB        -47.9404  -21.1198    6.9204 C.3       3 UNK        -0.1972 
     74 N         -48.2264  -23.5598    6.8447 N.am      3 UNK        -0.4305 
     75 C         -48.3810  -24.8298    7.2425 C.2       2 UNK         0.5006 
     76 O         -48.3242  -25.1944    8.4186 O.2       2 UNK        -0.5106 
     77 CA        -48.5861  -25.8842    6.1557 C.3       2 UNK         0.0296 
     78 CB        -47.2304  -26.4708    5.7173 C.3       2 UNK        -0.2002 
     79 N         -49.4407  -26.9274    6.7158 N.am      2 UNK        -0.4032 
     80 C         -50.1000  -27.8577    6.0181 C.2       1 UNK         0.5000 
     81 O         -50.0323  -27.9644    4.7892 O.2       1 UNK        -0.5238 
     82 H82       -55.0893  -29.6018    5.3246 H         1 UNK         0.0889 
     83 H83       -53.8166  -30.6427    4.6847 H         1 UNK         0.0889 
     84 H84       -54.2577  -29.1628    3.8293 H         1 UNK         0.0889 
     85 H85       -51.8830  -30.4254    5.7917 H         1 UNK         0.3028 
     86 H86       -51.4190  -28.2999    7.6407 H         1 UNK         0.0864 
     87 H87       -49.3388  -30.3495    6.7253 H         1 UNK         0.0720 
     88 H88       -49.3758  -29.4868    8.2385 H         1 UNK         0.0720 
     89 H89       -51.6616  -31.6132   10.4810 H         1 UNK         0.0814 
     90 H90       -50.3276  -30.4886   10.3945 H         1 UNK         0.0814 
     91 H91       -50.9422  -28.2460   10.8817 H         1 UNK         0.1469 
     92 H92       -54.7986  -26.7025    9.8231 H         1 UNK         0.1381 
     93 H93       -53.7994  -30.7735    8.9306 H         1 UNK         0.1206 
     94 H94       -55.8848  -29.8769    8.1320 H         1 UNK         0.0813 
     95 H95       -56.0282  -28.1444    8.0138 H         1 UNK         0.0813 
     96 H96       -58.2247  -30.8180    8.9532 H         1 UNK         0.0638 
     97 H97       -58.6790  -30.6273   10.6056 H         1 UNK         0.0638 
     98 H98       -57.5168  -32.5623   10.8837 H         1 UNK         0.0568 
     99 H99       -56.4651  -33.4948    7.4914 H         1 UNK         0.3450 
    100 H100      -57.8849  -32.7317    8.1550 H         1 UNK         0.3450 
    101 H101      -54.9651  -31.3046   11.1153 H         1 UNK         0.2987 
    102 H102      -55.2916  -30.8359   14.6219 H         1 UNK         0.0766 
    103 H103      -52.9260  -30.9438   13.9948 H         1 UNK         0.0798 
    104 H104      -53.3047  -30.9637   12.2805 H         1 UNK         0.0798 
    105 H105      -53.7271  -32.3405   13.2961 H         1 UNK         0.0798 
    106 H106      -55.3346  -28.8403   12.4857 H         1 UNK         0.3198 
    107 H107      -54.4267  -26.6980   12.8860 H         1 UNK         0.0843 
    108 H108      -56.5261  -26.3756   15.1157 H         1 UNK         0.0831 
    109 H109      -56.8755  -26.8924   13.4713 H         1 UNK         0.0831 
    110 H110      -56.2889  -25.2668   13.7660 H         1 UNK         0.0831 
    111 H111      -53.4394  -26.5561   15.5565 H         1 UNK         0.3133 
    112 H112      -52.1593  -23.1968   15.1968 H         1 UNK         0.0566 
    113 H113      -52.3485  -23.5194   17.6490 H         1 UNK         0.0814 
    114 H114      -53.9238  -23.3297   16.8961 H         1 UNK         0.0814 
    115 H115      -53.3906  -24.9197   17.4078 H         1 UNK         0.0814 
    116 H116      -50.3906  -24.4607   15.1473 H         1 UNK         0.3091 
    117 H117      -49.3262  -27.4095   16.7280 H         1 UNK         0.0702 
    118 H118      -50.3888  -28.4926   14.7557 H         1 UNK         0.0785 
    119 H119      -49.8446  -27.1874   13.7139 H         1 UNK         0.0785 
    120 H120      -48.6705  -28.2526   14.4828 H         1 UNK         0.0785 
    121 H121      -48.0410  -25.8136   14.7461 H         1 UNK         0.2998 
    122 H122      -46.4391  -23.6473   17.1409 H         1 UNK         0.0697 
    123 H123      -45.5371  -25.9681   15.3515 H         1 UNK         0.0825 
    124 H124      -45.2656  -25.8405   17.0847 H         1 UNK         0.0825 
    125 H125      -44.5062  -24.6922   15.9943 H         1 UNK         0.0825 
    126 H126      -46.8642  -24.1273   14.2156 H         1 UNK         0.3029 
    127 H127      -48.0154  -20.8297   13.7502 H         1 UNK         0.0897 
    128 H128      -46.2505  -20.5866   12.0366 H         1 UNK         0.0792 
    129 H129      -45.3371  -21.9261   12.7293 H         1 UNK         0.0792 
    130 H130      -45.5310  -20.4264   13.6294 H         1 UNK         0.0792 
    131 H131      -47.5074  -22.7389   11.7765 H         1 UNK         0.3086 
    132 H132      -50.0054  -25.1244   12.5340 H         1 UNK         0.0583 
    133 H133      -51.4501  -23.3945   11.4655 H         1 UNK         0.1020 
    134 H134      -50.1972  -23.0546   10.2971 H         1 UNK         0.1020 
    135 H135      -51.9825  -26.1166   11.9567 H         1 UNK         0.0694 
    136 H136      -53.2965  -25.3356   11.1068 H         1 UNK         0.0694 
    137 H137      -48.4036  -25.0040   10.2419 H         1 UNK         0.2989 
    138 H138      -45.5173  -26.6195   11.6719 H         1 UNK         0.1055 
    139 H139      -47.1924  -28.3337   11.0642 H         1 UNK         0.0806 
    140 H140      -46.0945  -28.0660    9.7204 H         1 UNK         0.0806 
    141 H141      -47.7223  -27.3948    9.6793 H         1 UNK         0.0806 
    142 H142      -46.3828  -25.3160    9.1602 H         1 UNK         0.3061 
    143 H143      -44.3493  -22.4782    9.6576 H         1 UNK         0.0734 
    144 H144      -43.2168  -23.1175    7.5404 H         1 UNK         0.0832 
    145 H145      -42.5933  -24.0758    8.8718 H         1 UNK         0.0832 
    146 H146      -43.7305  -24.7941    7.7404 H         1 UNK         0.0832 
    147 H147      -45.7696  -23.4096    7.3645 H         1 UNK         0.3156 
    148 H148      -49.0149  -22.3359    8.3168 H         1 UNK         0.0589 
    149 H149      -47.0526  -21.1432    6.2872 H         1 UNK         0.0808 
    150 H150      -48.8071  -20.9573    6.2794 H         1 UNK         0.0808 
    151 H151      -47.8541  -20.2475    7.5702 H         1 UNK         0.0808 
    152 H152      -48.2641  -23.3552    5.8560 H         1 UNK         0.3098 
    153 H153      -49.0911  -25.4270    5.3022 H         1 UNK         0.0720 
    154 H154      -46.7130  -26.9513    6.5491 H         1 UNK         0.0791 
    155 H155      -46.5728  -25.6927    5.3277 H         1 UNK         0.0791 
    156 H156      -47.3514  -27.2123    4.9277 H         1 UNK         0.0791 
    157 H157      -49.5501  -26.8651    7.7213 H         1 UNK         0.3028 
@<TRIPOS>BOND
     1    1    2 1    
     2    1   82 1    
     3    1   83 1    
     4    1   84 1    
     5    2    3 2    
     6    2    4 am   BACKBONE|DICT|INTERRES
     7    4    5 1    
     8    4   85 1    
     9    5    6 1    
    10    5   80 1    
    11    5   86 1    
    12    6    7 1    
    13    6   87 1    
    14    6   88 1    
    15    7    8 1    
    16    8    9 1    
    17    8   89 1    
    18    8   90 1    
    19    9   10 ar   
    20    9   14 ar   
    21   10   11 ar   
    22   10   91 1    
    23   11   12 ar   
    24   11   58 1    
    25   12   13 ar   
    26   12   92 1    
    27   13   14 ar   
    28   13   15 1    
    29   14   93 1    
    30   15   16 1    
    31   15   94 1    
    32   15   95 1    
    33   16   17 1    
    34   17   18 1    
    35   17   96 1    
    36   17   97 1    
    37   18   19 1    
    38   18   22 1    
    39   18   98 1    
    40   19   20 am   BACKBONE|DICT|INTERRES
    41   19   21 2    
    42   20   99 1    
    43   20  100 1    
    44   22   23 am   BACKBONE|DICT|INTERRES
    45   22  101 1    
    46   23   24 2    
    47   23   25 1    
    48   25   26 1    
    49   25   27 1    
    50   25  102 1    
    51   26  103 1    
    52   26  104 1    
    53   26  105 1    
    54   27   28 am   BACKBONE|DICT|INTERRES
    55   27  106 1    
    56   28   29 2    
    57   28   30 1    
    58   30   31 1    
    59   30   32 1    
    60   30  107 1    
    61   31  108 1    
    62   31  109 1    
    63   31  110 1    
    64   32   33 am   BACKBONE|DICT|INTERRES
    65   32  111 1    
    66   33   34 2    
    67   33   35 1    
    68   35   36 1    
    69   35   37 1    
    70   35  112 1    
    71   36  113 1    
    72   36  114 1    
    73   36  115 1    
    74   37   38 am   BACKBONE|DICT|INTERRES
    75   37  116 1    
    76   38   39 2    
    77   38   40 1    
    78   40   41 1    
    79   40   42 1    
    80   40  117 1    
    81   41  118 1    
    82   41  119 1    
    83   41  120 1    
    84   42   43 am   BACKBONE|DICT|INTERRES
    85   42  121 1    
    86   43   44 2    
    87   43   45 1    
    88   45   46 1    
    89   45   47 1    
    90   45  122 1    
    91   46  123 1    
    92   46  124 1    
    93   46  125 1    
    94   47   48 am   BACKBONE|DICT|INTERRES
    95   47  126 1    
    96   48   49 2    
    97   48   50 1    
    98   50   51 1    
    99   50   52 1    
   100   50  127 1    
   101   51  128 1    
   102   51  129 1    
   103   51  130 1    
   104   52   53 am   BACKBONE|DICT|INTERRES
   105   52  131 1    
   106   53   54 2    
   107   53   55 1    
   108   55   56 1    
   109   55   59 1    
   110   55  132 1    
   111   56   57 1    
   112   56  133 1    
   113   56  134 1    
   114   57   58 1    
   115   58  135 1    
   116   58  136 1    
   117   59   60 am   BACKBONE|DICT|INTERRES
   118   59  137 1    
   119   60   61 2    
   120   60   62 1    
   121   62   63 1    
   122   62   64 1    
   123   62  138 1    
   124   63  139 1    
   125   63  140 1    
   126   63  141 1    
   127   64   65 am   BACKBONE|DICT|INTERRES
   128   64  142 1    
   129   65   66 2    
   130   65   67 1    
   131   67   68 1    
   132   67   69 1    
   133   67  143 1    
   134   68  144 1    
   135   68  145 1    
   136   68  146 1    
   137   69   70 am   BACKBONE|DICT|INTERRES
   138   69  147 1    
   139   70   71 2    
   140   70   72 1    
   141   72   73 1    
   142   72   74 1    
   143   72  148 1    
   144   73  149 1    
   145   73  150 1    
   146   73  151 1    
   147   74   75 am   BACKBONE|DICT|INTERRES
   148   74  152 1    
   149   75   76 2    
   150   75   77 1    
   151   77   78 1    
   152   77   79 1    
   153   77  153 1    
   154   78  154 1    
   155   78  155 1    
   156   78  156 1    
   157   79   80 am   BACKBONE|DICT|INTERRES
   158   79  157 1    
   159   80   81 2    
@<TRIPOS>SUBSTRUCTURE
     1 UNK         1 GROUP             0       ****    0 ROOT    
