@<TRIPOS>MOLECULE
3R207
157   159    1
SMALL
USER_CHARGES


@<TRIPOS>ATOM
      1 CA        -47.6332  -31.0994    2.7099 C.3       0 UNK        -0.1975 
      2 C         -48.3338  -29.7543    2.8357 C.2       0 UNK         0.4852 
      3 O         -47.8090  -28.7450    2.3625 O.2       0 UNK        -0.5216 
      4 N         -49.5180  -29.7360    3.4596 N.am      1 UNK        -0.4461 
      5 CA        -50.2966  -28.5280    3.7474 C.3       1 UNK         0.0864 
      6 C6        -51.8082  -28.8589    3.8940 C.3       14 UNK        -0.0898 
      7 S7        -52.2194  -29.9278    5.3214 S.3       14 UNK        -0.2598 
      8 C8        -52.9666  -28.7128    6.4552 C.3       14 UNK         0.0286 
      9 C9        -52.7079  -29.0697    7.9096 C.ar      14 UNK        -0.0844 
     10 C10       -51.4463  -28.8428    8.4659 C.ar      14 UNK        -0.0881 
     11 C11       -51.1980  -29.1119    9.8160 C.ar      14 UNK        -0.0643 
     12 C12       -52.2290  -29.6384   10.6037 C.ar      14 UNK        -0.0930 
     13 C13       -53.4930  -29.8856   10.0549 C.ar      14 UNK        -0.0827 
     14 C14       -53.7264  -29.5972    8.7070 C.ar      14 UNK        -0.1249 
     15 C15       -54.6105  -30.4629   10.9121 C.3       14 UNK         0.0141 
     16 S16       -55.6882  -29.1439   11.5470 S.3       14 UNK        -0.2313 
     17 C17       -56.9492  -30.0784   12.4734 C.3       14 UNK        -0.0915 
     18 CA        -56.6994  -30.1577   14.0033 C.3       13 UNK         0.0968 
     19 C         -55.6007  -31.1997   14.3600 C.2       13 UNK         0.5732 
     20 N         -54.4085  -30.7881   14.7734 N.am      13 UNK        -0.7310 
     21 O         -55.8419  -32.4012   14.2699 O.2       13 UNK        -0.5035 
     22 N         -56.4962  -28.8349   14.6218 N.am      13 UNK        -0.4233 
     23 C         -56.7321  -28.5831   15.9171 C.2       13 UNK         0.4989 
     24 O         -57.3000  -29.3825   16.6639 O.2       13 UNK        -0.4996 
     25 CA        -56.2624  -27.2441   16.5133 C.3       12 UNK         0.0216 
     26 CB        -55.2221  -27.4913   17.6212 C.3       12 UNK        -0.1964 
     27 N         -55.6712  -26.3271   15.5346 N.am      12 UNK        -0.4276 
     28 C         -56.1261  -25.0945   15.2660 C.2       12 UNK         0.5020 
     29 O         -57.1876  -24.6513   15.7078 O.2       12 UNK        -0.5489 
     30 CA        -55.2500  -24.1668   14.3975 C.3       11 UNK         0.0294 
     31 CB        -54.6165  -23.0688   15.2683 C.3       11 UNK        -0.2019 
     32 N         -54.1820  -24.8576   13.6745 N.am      11 UNK        -0.4493 
     33 C         -54.3711  -25.6501   12.6127 C.2       11 UNK         0.4932 
     34 O         -55.4627  -25.8023   12.0662 O.2       11 UNK        -0.5029 
     35 CA        -53.1454  -26.4306   12.1038 C.3       10 UNK         0.0280 
     36 CB        -52.4151  -25.6316   11.0155 C.3       10 UNK        -0.1976 
     37 N         -52.2072  -26.8147   13.1680 N.am      10 UNK        -0.4242 
     38 C         -52.5148  -27.5850   14.2236 C.2       10 UNK         0.5072 
     39 O         -53.6319  -28.0606   14.4207 O.2       10 UNK        -0.5224 
     40 CA        -51.4178  -27.8337   15.2665 C.3       9 UNK         0.0343 
     41 CB        -50.4976  -28.9860   14.8334 C.3       9 UNK        -0.2003 
     42 N         -50.6341  -26.6229   15.5033 N.am      9 UNK        -0.4272 
     43 C         -50.9958  -25.6395   16.3393 C.2       9 UNK         0.4988 
     44 O         -51.9784  -25.6953   17.0789 O.2       9 UNK        -0.5108 
     45 CA        -50.1268  -24.3676   16.3433 C.3       8 UNK         0.0248 
     46 CB        -48.9888  -24.4965   17.3685 C.3       8 UNK        -0.2001 
     47 N         -49.5647  -24.0360   15.0304 N.am      8 UNK        -0.4140 
     48 C         -50.2916  -23.6991   13.9557 C.2       8 UNK         0.5028 
     49 O         -51.5189  -23.6012   13.9632 O.2       8 UNK        -0.5428 
     50 CA        -49.5277  -23.4827   12.6365 C.3       7 UNK         0.0264 
     51 CB        -49.0145  -22.0378   12.5431 C.3       7 UNK        -0.1988 
     52 N         -48.4161  -24.4085   12.3826 N.am      7 UNK        -0.4454 
     53 C         -48.4404  -25.7480   12.4830 C.2       7 UNK         0.5027 
     54 O         -49.3948  -26.3727   12.9445 O.2       7 UNK        -0.5083 
     55 CA        -47.1965  -26.5386   12.0165 C.3       6 UNK         0.0844 
     56 C56       -47.4037  -27.4748   10.7777 C.3       14 UNK        -0.0967 
     57 S57       -48.9688  -27.3783    9.8296 S.3       14 UNK        -0.2604 
     58 C58       -49.8158  -28.8847   10.4260 C.3       14 UNK         0.0134 
     59 N         -46.0417  -25.6558   11.8220 N.am      6 UNK        -0.4116 
     60 C         -45.0693  -25.4386   12.7190 C.2       5 UNK         0.5034 
     61 O         -45.0401  -25.9522   13.8376 O.2       5 UNK        -0.5045 
     62 CA        -43.9199  -24.5015   12.3015 C.3       5 UNK         0.0224 
     63 CB        -42.7037  -25.3219   11.8413 C.3       5 UNK        -0.1978 
     64 N         -44.2899  -23.5613   11.2400 N.am      5 UNK        -0.4737 
     65 C         -45.0672  -22.4854   11.4204 C.2       4 UNK         0.5027 
     66 O         -45.5122  -22.1411   12.5142 O.2       4 UNK        -0.5211 
     67 CA        -45.4470  -21.6844   10.1612 C.3       4 UNK         0.0297 
     68 CB        -44.4229  -20.5665    9.9090 C.3       4 UNK        -0.1993 
     69 N         -45.5936  -22.4988    8.9458 N.am      4 UNK        -0.4486 
     70 C         -46.4480  -23.5210    8.8075 C.2       3 UNK         0.4961 
     71 O         -47.1619  -23.9457    9.7188 O.2       3 UNK        -0.5105 
     72 CA        -46.4842  -24.2162    7.4445 C.3       3 UNK         0.0299 
     73 CB        -45.3590  -25.2595    7.3282 C.3       3 UNK        -0.1972 
     74 N         -47.7812  -24.8707    7.3159 N.am      3 UNK        -0.4305 
     75 C         -48.4324  -25.1069    6.1746 C.2       2 UNK         0.5006 
     76 O         -47.9899  -24.8367    5.0551 O.2       2 UNK        -0.5106 
     77 CA        -49.8438  -25.6971    6.3206 C.3       2 UNK         0.0296 
     78 CB        -50.8879  -24.5796    6.4773 C.3       2 UNK        -0.2002 
     79 N         -50.2081  -26.5390    5.1801 N.am      2 UNK        -0.4032 
     80 C         -49.7307  -27.7737    4.9739 C.2       1 UNK         0.5000 
     81 O         -48.9260  -28.3271    5.7303 O.2       1 UNK        -0.5238 
     82 H82       -48.2155  -31.9055    3.1561 H         1 UNK         0.0889 
     83 H83       -46.6647  -31.0652    3.2081 H         1 UNK         0.0889 
     84 H84       -47.4690  -31.3408    1.6601 H         1 UNK         0.0889 
     85 H85       -49.8837  -30.5862    3.8645 H         1 UNK         0.3028 
     86 H86       -50.1942  -27.8565    2.8918 H         1 UNK         0.0864 
     87 H87       -52.1525  -29.3692    2.9929 H         1 UNK         0.0720 
     88 H88       -52.3982  -27.9420    3.9371 H         1 UNK         0.0720 
     89 H89       -54.0370  -28.6483    6.2540 H         1 UNK         0.0814 
     90 H90       -52.5631  -27.7170    6.2698 H         1 UNK         0.0814 
     91 H91       -50.6542  -28.4567    7.8408 H         1 UNK         0.1469 
     92 H92       -52.0500  -29.8559   11.6479 H         1 UNK         0.1381 
     93 H93       -54.7054  -29.7757    8.2833 H         1 UNK         0.1206 
     94 H94       -54.1921  -31.0279   11.7458 H         1 UNK         0.0813 
     95 H95       -55.2024  -31.1668   10.3251 H         1 UNK         0.0813 
     96 H96       -57.9034  -29.5794   12.2987 H         1 UNK         0.0638 
     97 H97       -57.0619  -31.0742   12.0406 H         1 UNK         0.0638 
     98 H98       -57.6189  -30.5679   14.4255 H         1 UNK         0.0568 
     99 H99       -54.1861  -29.7965   14.7724 H         1 UNK         0.3450 
    100 H100      -53.7065  -31.4676   15.0152 H         1 UNK         0.3450 
    101 H101      -55.9800  -28.1647   14.0694 H         1 UNK         0.2987 
    102 H102      -57.1421  -26.7916   16.9751 H         1 UNK         0.0766 
    103 H103      -54.9136  -26.5570   18.0910 H         1 UNK         0.0798 
    104 H104      -54.3270  -27.9776   17.2310 H         1 UNK         0.0798 
    105 H105      -55.6250  -28.1303   18.4081 H         1 UNK         0.0798 
    106 H106      -54.8099  -26.6431   15.0986 H         1 UNK         0.3198 
    107 H107      -55.9065  -23.6892   13.6671 H         1 UNK         0.0843 
    108 H108      -53.9345  -23.4882   16.0096 H         1 UNK         0.0831 
    109 H109      -55.3789  -22.5040   15.8066 H         1 UNK         0.0831 
    110 H110      -54.0542  -22.3574   14.6628 H         1 UNK         0.0831 
    111 H111      -53.2306  -24.6959   13.9937 H         1 UNK         0.3133 
    112 H112      -53.5016  -27.3536   11.6505 H         1 UNK         0.0566 
    113 H113      -51.4940  -26.1226   10.7048 H         1 UNK         0.0814 
    114 H114      -53.0423  -25.5301   10.1290 H         1 UNK         0.0814 
    115 H115      -52.1718  -24.6262   11.3543 H         1 UNK         0.0814 
    116 H116      -51.2435  -26.5039   13.0683 H         1 UNK         0.3091 
    117 H117      -51.9047  -28.1312   16.1978 H         1 UNK         0.0702 
    118 H118      -51.0719  -29.8966   14.6572 H         1 UNK         0.0785 
    119 H119      -49.9592  -28.7581   13.9141 H         1 UNK         0.0785 
    120 H120      -49.7604  -29.2118   15.6038 H         1 UNK         0.0785 
    121 H121      -49.8628  -26.4620   14.8646 H         1 UNK         0.2998 
    122 H122      -50.7672  -23.5367   16.6472 H         1 UNK         0.0697 
    123 H123      -48.2949  -25.2959   17.1051 H         1 UNK         0.0825 
    124 H124      -49.3823  -24.7209   18.3610 H         1 UNK         0.0825 
    125 H125      -48.4201  -23.5700   17.4501 H         1 UNK         0.0825 
    126 H126      -48.5623  -24.1004   14.9273 H         1 UNK         0.3029 
    127 H127      -50.2378  -23.6290   11.8235 H         1 UNK         0.0897 
    128 H128      -48.5931  -21.8313   11.5591 H         1 UNK         0.0792 
    129 H129      -48.2433  -21.8342   13.2872 H         1 UNK         0.0792 
    130 H130      -49.8228  -21.3230   12.7043 H         1 UNK         0.0792 
    131 H131      -47.6061  -24.0006   11.9355 H         1 UNK         0.3086 
    132 H132      -46.9746  -27.2009   12.8561 H         1 UNK         0.0583 
    133 H133      -46.6017  -27.3277   10.0526 H         1 UNK         0.1020 
    134 H134      -47.2713  -28.5082   11.1016 H         1 UNK         0.1020 
    135 H135      -49.1962  -29.7545   10.2047 H         1 UNK         0.0694 
    136 H136      -49.8946  -28.8205   11.5118 H         1 UNK         0.0694 
    137 H137      -46.0301  -25.1375   10.9517 H         1 UNK         0.2989 
    138 H138      -43.6319  -23.9285   13.1862 H         1 UNK         0.1055 
    139 H139      -42.3821  -26.0143   12.6209 H         1 UNK         0.0806 
    140 H140      -41.8538  -24.6782   11.6135 H         1 UNK         0.0806 
    141 H141      -42.9263  -25.9134   10.9523 H         1 UNK         0.0806 
    142 H142      -43.9586  -23.7628   10.3074 H         1 UNK         0.3061 
    143 H143      -46.4152  -21.2189   10.3570 H         1 UNK         0.0734 
    144 H144      -44.7325  -19.9204    9.0874 H         1 UNK         0.0832 
    145 H145      -44.3120  -19.9332   10.7906 H         1 UNK         0.0832 
    146 H146      -43.4367  -20.9669    9.6704 H         1 UNK         0.0832 
    147 H147      -45.0325  -22.2272    8.1505 H         1 UNK         0.3156 
    148 H148      -46.3744  -23.4601    6.6641 H         1 UNK         0.0589 
    149 H149      -45.4383  -26.0256    8.1005 H         1 UNK         0.0808 
    150 H150      -45.3837  -25.7604    6.3602 H         1 UNK         0.0808 
    151 H151      -44.3773  -24.7946    7.4254 H         1 UNK         0.0808 
    152 H152      -48.2271  -25.0676    8.2052 H         1 UNK         0.3098 
    153 H153      -49.8696  -26.3127    7.2208 H         1 UNK         0.0720 
    154 H154      -51.8872  -24.9885    6.6286 H         1 UNK         0.0791 
    155 H155      -50.9178  -23.9287    5.6025 H         1 UNK         0.0791 
    156 H156      -50.6634  -23.9534    7.3420 H         1 UNK         0.0791 
    157 H157      -50.8279  -26.1286    4.4972 H         1 UNK         0.3028 
@<TRIPOS>BOND
     1    1    2 1    
     2    1   82 1    
     3    1   83 1    
     4    1   84 1    
     5    2    3 2    
     6    2    4 am   BACKBONE|DICT|INTERRES
     7    4    5 1    
     8    4   85 1    
     9    5    6 1    
    10    5   80 1    
    11    5   86 1    
    12    6    7 1    
    13    6   87 1    
    14    6   88 1    
    15    7    8 1    
    16    8    9 1    
    17    8   89 1    
    18    8   90 1    
    19    9   10 ar   
    20    9   14 ar   
    21   10   11 ar   
    22   10   91 1    
    23   11   12 ar   
    24   11   58 1    
    25   12   13 ar   
    26   12   92 1    
    27   13   14 ar   
    28   13   15 1    
    29   14   93 1    
    30   15   16 1    
    31   15   94 1    
    32   15   95 1    
    33   16   17 1    
    34   17   18 1    
    35   17   96 1    
    36   17   97 1    
    37   18   19 1    
    38   18   22 1    
    39   18   98 1    
    40   19   20 am   BACKBONE|DICT|INTERRES
    41   19   21 2    
    42   20   99 1    
    43   20  100 1    
    44   22   23 am   BACKBONE|DICT|INTERRES
    45   22  101 1    
    46   23   24 2    
    47   23   25 1    
    48   25   26 1    
    49   25   27 1    
    50   25  102 1    
    51   26  103 1    
    52   26  104 1    
    53   26  105 1    
    54   27   28 am   BACKBONE|DICT|INTERRES
    55   27  106 1    
    56   28   29 2    
    57   28   30 1    
    58   30   31 1    
    59   30   32 1    
    60   30  107 1    
    61   31  108 1    
    62   31  109 1    
    63   31  110 1    
    64   32   33 am   BACKBONE|DICT|INTERRES
    65   32  111 1    
    66   33   34 2    
    67   33   35 1    
    68   35   36 1    
    69   35   37 1    
    70   35  112 1    
    71   36  113 1    
    72   36  114 1    
    73   36  115 1    
    74   37   38 am   BACKBONE|DICT|INTERRES
    75   37  116 1    
    76   38   39 2    
    77   38   40 1    
    78   40   41 1    
    79   40   42 1    
    80   40  117 1    
    81   41  118 1    
    82   41  119 1    
    83   41  120 1    
    84   42   43 am   BACKBONE|DICT|INTERRES
    85   42  121 1    
    86   43   44 2    
    87   43   45 1    
    88   45   46 1    
    89   45   47 1    
    90   45  122 1    
    91   46  123 1    
    92   46  124 1    
    93   46  125 1    
    94   47   48 am   BACKBONE|DICT|INTERRES
    95   47  126 1    
    96   48   49 2    
    97   48   50 1    
    98   50   51 1    
    99   50   52 1    
   100   50  127 1    
   101   51  128 1    
   102   51  129 1    
   103   51  130 1    
   104   52   53 am   BACKBONE|DICT|INTERRES
   105   52  131 1    
   106   53   54 2    
   107   53   55 1    
   108   55   56 1    
   109   55   59 1    
   110   55  132 1    
   111   56   57 1    
   112   56  133 1    
   113   56  134 1    
   114   57   58 1    
   115   58  135 1    
   116   58  136 1    
   117   59   60 am   BACKBONE|DICT|INTERRES
   118   59  137 1    
   119   60   61 2    
   120   60   62 1    
   121   62   63 1    
   122   62   64 1    
   123   62  138 1    
   124   63  139 1    
   125   63  140 1    
   126   63  141 1    
   127   64   65 am   BACKBONE|DICT|INTERRES
   128   64  142 1    
   129   65   66 2    
   130   65   67 1    
   131   67   68 1    
   132   67   69 1    
   133   67  143 1    
   134   68  144 1    
   135   68  145 1    
   136   68  146 1    
   137   69   70 am   BACKBONE|DICT|INTERRES
   138   69  147 1    
   139   70   71 2    
   140   70   72 1    
   141   72   73 1    
   142   72   74 1    
   143   72  148 1    
   144   73  149 1    
   145   73  150 1    
   146   73  151 1    
   147   74   75 am   BACKBONE|DICT|INTERRES
   148   74  152 1    
   149   75   76 2    
   150   75   77 1    
   151   77   78 1    
   152   77   79 1    
   153   77  153 1    
   154   78  154 1    
   155   78  155 1    
   156   78  156 1    
   157   79   80 am   BACKBONE|DICT|INTERRES
   158   79  157 1    
   159   80   81 2    
@<TRIPOS>SUBSTRUCTURE
     1 UNK         1 GROUP             0       ****    0 ROOT    
