@<TRIPOS>MOLECULE
3R207
157   159    1
SMALL
USER_CHARGES


@<TRIPOS>ATOM
      1 CA        -44.8313  -29.0061    8.9205 C.3       0 UNK        -0.1975 
      2 C         -45.7639  -29.3321    7.7644 C.2       0 UNK         0.4852 
      3 O         -45.3479  -29.2574    6.6084 O.2       0 UNK        -0.5216 
      4 N         -47.0278  -29.6683    8.0649 N.am      1 UNK        -0.4461 
      5 CA        -48.0547  -30.1432    7.1203 C.3       1 UNK         0.0864 
      6 C6        -49.3038  -30.6728    7.8736 C.3       14 UNK        -0.0898 
      7 S7        -50.2771  -29.3719    8.7138 S.3       14 UNK        -0.2598 
      8 C8        -51.7450  -29.3257    7.6355 C.3       14 UNK         0.0286 
      9 C9        -52.4838  -28.0025    7.7439 C.ar      14 UNK        -0.0844 
     10 C10       -51.9335  -26.8559    7.1660 C.ar      14 UNK        -0.0881 
     11 C11       -52.6061  -25.6339    7.2329 C.ar      14 UNK        -0.0643 
     12 C12       -53.8447  -25.5648    7.8760 C.ar      14 UNK        -0.0930 
     13 C13       -54.4106  -26.7065    8.4508 C.ar      14 UNK        -0.0827 
     14 C14       -53.7243  -27.9240    8.3841 C.ar      14 UNK        -0.1249 
     15 C15       -55.7712  -26.6165    9.1253 C.3       14 UNK         0.0141 
     16 S16       -55.6068  -26.3757   10.9199 S.3       14 UNK        -0.2313 
     17 C17       -55.4061  -28.0932   11.5039 C.3       14 UNK        -0.0915 
     18 CA        -56.3590  -28.4274   12.6809 C.3       13 UNK         0.0968 
     19 C         -56.3333  -29.9462   13.0232 C.2       13 UNK         0.5732 
     20 N         -56.0433  -30.3636   14.2509 N.am      13 UNK        -0.7310 
     21 O         -56.6016  -30.7719   12.1536 O.2       13 UNK        -0.5035 
     22 N         -56.0987  -27.5610   13.8374 N.am      13 UNK        -0.4233 
     23 C         -57.0215  -27.1504   14.7149 C.2       13 UNK         0.4989 
     24 O         -58.2265  -27.3800   14.5935 O.2       13 UNK        -0.4996 
     25 CA        -56.5147  -26.3494   15.9343 C.3       12 UNK         0.0216 
     26 CB        -57.4731  -26.4361   17.1410 C.3       12 UNK        -0.1964 
     27 N         -55.1458  -26.6916   16.3430 N.am      12 UNK        -0.4276 
     28 C         -54.6800  -27.8986   16.6936 C.2       12 UNK         0.5020 
     29 O         -55.3589  -28.9277   16.7231 O.2       12 UNK        -0.5489 
     30 CA        -53.1793  -27.9702   17.0172 C.3       11 UNK         0.0294 
     31 CB        -52.9330  -28.7351   18.3288 C.3       11 UNK        -0.2019 
     32 N         -52.3661  -28.5730   15.9560 N.am      11 UNK        -0.4493 
     33 C         -52.4091  -28.3211   14.6392 C.2       11 UNK         0.4932 
     34 O         -53.2550  -27.6207   14.0850 O.2       11 UNK        -0.5029 
     35 CA        -51.2265  -28.8698   13.8250 C.3       10 UNK         0.0280 
     36 CB        -51.4701  -28.8255   12.3052 C.3       10 UNK        -0.1976 
     37 N         -50.0562  -28.0555   14.1402 N.am      10 UNK        -0.4242 
     38 C         -49.2905  -28.2060   15.2296 C.2       10 UNK         0.5072 
     39 O         -49.3631  -29.1720   15.9910 O.2       10 UNK        -0.5224 
     40 CA        -48.3456  -27.0454   15.5657 C.3       9 UNK         0.0343 
     41 CB        -47.0486  -27.1336   14.7479 C.3       9 UNK        -0.2003 
     42 N         -49.0009  -25.7529   15.3423 N.am      9 UNK        -0.4272 
     43 C         -49.8659  -25.1916   16.1999 C.2       9 UNK         0.4988 
     44 O         -50.1810  -25.6883   17.2816 O.2       9 UNK        -0.5108 
     45 CA        -50.4624  -23.8372   15.7901 C.3       8 UNK         0.0248 
     46 CB        -49.3690  -22.8130   15.4343 C.3       8 UNK        -0.2001 
     47 N         -51.3878  -23.9668   14.6679 N.am      8 UNK        -0.4140 
     48 C         -52.6573  -24.3818   14.7407 C.2       8 UNK         0.5028 
     49 O         -53.2049  -24.7184   15.7923 O.2       8 UNK        -0.5428 
     50 CA        -53.4867  -24.4117   13.4387 C.3       7 UNK         0.0264 
     51 CB        -54.3778  -23.1599   13.3294 C.3       7 UNK        -0.1988 
     52 N         -52.7363  -24.6365   12.1915 N.am      7 UNK        -0.4454 
     53 C         -51.8123  -23.8564   11.6121 C.2       7 UNK         0.5027 
     54 O         -51.4086  -22.7938   12.0887 O.2       7 UNK        -0.5083 
     55 CA        -51.2042  -24.3643   10.2906 C.3       6 UNK         0.0844 
     56 C56       -51.4094  -23.3144    9.1648 C.3       14 UNK        -0.0967 
     57 S57       -50.5924  -23.7714    7.5927 S.3       14 UNK        -0.2604 
     58 C58       -51.9915  -24.3907    6.6101 C.3       14 UNK         0.0134 
     59 N         -49.7891  -24.7178   10.4153 N.am      6 UNK        -0.4116 
     60 C         -49.1545  -25.3965   11.3794 C.2       5 UNK         0.5034 
     61 O         -49.6707  -25.8009   12.4224 O.2       5 UNK        -0.5045 
     62 CA        -47.6722  -25.7111   11.1182 C.3       5 UNK         0.0224 
     63 CB        -47.5098  -27.1955   10.7562 C.3       5 UNK        -0.1978 
     64 N         -47.0697  -24.8925   10.0593 N.am      5 UNK        -0.4737 
     65 C         -46.7065  -23.6109   10.2008 C.2       4 UNK         0.5027 
     66 O         -46.8369  -22.9897   11.2558 O.2       4 UNK        -0.5211 
     67 CA        -46.1408  -22.8856    8.9618 C.3       4 UNK         0.0297 
     68 CB        -44.9399  -21.9848    9.3202 C.3       4 UNK        -0.1993 
     69 N         -45.8204  -23.7525    7.8164 N.am      4 UNK        -0.4486 
     70 C         -44.8739  -24.6972    7.7272 C.2       3 UNK         0.4961 
     71 O         -44.1674  -25.0556    8.6698 O.2       3 UNK        -0.5105 
     72 CA        -44.7146  -25.3627    6.3452 C.3       3 UNK         0.0299 
     73 CB        -43.4440  -26.2279    6.2502 C.3       3 UNK        -0.1972 
     74 N         -45.8738  -26.1803    5.9757 N.am      3 UNK        -0.4305 
     75 C         -47.0688  -25.7093    5.5820 C.2       2 UNK         0.5006 
     76 O         -47.3394  -24.5100    5.5146 O.2       2 UNK        -0.5106 
     77 CA        -48.1410  -26.7441    5.2149 C.3       2 UNK         0.0296 
     78 CB        -47.9698  -27.1175    3.7255 C.3       2 UNK        -0.2002 
     79 N         -48.0262  -27.8894    6.1263 N.am      2 UNK        -0.4032 
     80 C         -48.4341  -29.1579    5.9844 C.2       1 UNK         0.5000 
     81 O         -49.0815  -29.5801    5.0251 O.2       1 UNK        -0.5238 
     82 H82       -43.8540  -29.4575    8.7516 H         1 UNK         0.0889 
     83 H83       -45.2132  -29.3856    9.8679 H         1 UNK         0.0889 
     84 H84       -44.6962  -27.9281    9.0065 H         1 UNK         0.0889 
     85 H85       -47.3102  -29.6908    9.0347 H         1 UNK         0.3028 
     86 H86       -47.6078  -31.0002    6.6116 H         1 UNK         0.0864 
     87 H87       -49.9457  -31.2303    7.1890 H         1 UNK         0.0720 
     88 H88       -48.9980  -31.4003    8.6271 H         1 UNK         0.0720 
     89 H89       -52.4001  -30.1608    7.8882 H         1 UNK         0.0814 
     90 H90       -51.4499  -29.4712    6.5954 H         1 UNK         0.0814 
     91 H91       -50.9751  -26.9151    6.6704 H         1 UNK         0.1469 
     92 H92       -54.3711  -24.6216    7.9281 H         1 UNK         0.1381 
     93 H93       -54.1582  -28.8117    8.8222 H         1 UNK         0.1206 
     94 H94       -56.3664  -27.5049    8.9097 H         1 UNK         0.0813 
     95 H95       -56.3341  -25.7765    8.7157 H         1 UNK         0.0813 
     96 H96       -54.3654  -28.2394   11.7904 H         1 UNK         0.0638 
     97 H97       -55.5876  -28.7755   10.6730 H         1 UNK         0.0638 
     98 H98       -57.3745  -28.2323   12.3315 H         1 UNK         0.0568 
     99 H99       -56.0444  -31.3525   14.4404 H         1 UNK         0.3450 
    100 H100      -55.8371  -29.7119   15.0022 H         1 UNK         0.3450 
    101 H101      -55.1148  -27.3901   14.0299 H         1 UNK         0.2987 
    102 H102      -56.4798  -25.3076   15.6124 H         1 UNK         0.0766 
    103 H103      -58.4625  -26.0541   16.8866 H         1 UNK         0.0798 
    104 H104      -57.1072  -25.8458   17.9812 H         1 UNK         0.0798 
    105 H105      -57.5986  -27.4641   17.4826 H         1 UNK         0.0798 
    106 H106      -54.4645  -25.9340   16.2633 H         1 UNK         0.3198 
    107 H107      -52.8077  -26.9538   17.1592 H         1 UNK         0.0843 
    108 H108      -53.2071  -29.7872   18.2395 H         1 UNK         0.0831 
    109 H109      -53.5227  -28.3127   19.1435 H         1 UNK         0.0831 
    110 H110      -51.8859  -28.6835   18.6281 H         1 UNK         0.0831 
    111 H111      -51.5810  -29.1273   16.2750 H         1 UNK         0.3133 
    112 H112      -51.0510  -29.9081   14.1137 H         1 UNK         0.0566 
    113 H113      -50.6042  -29.1983   11.7586 H         1 UNK         0.0814 
    114 H114      -51.6739  -27.8143   11.9503 H         1 UNK         0.0814 
    115 H115      -52.3195  -29.4503   12.0286 H         1 UNK         0.0814 
    116 H116      -49.9439  -27.2098   13.5843 H         1 UNK         0.3091 
    117 H117      -48.0791  -27.1224   16.6223 H         1 UNK         0.0702 
    118 H118      -46.4996  -28.0435   14.9938 H         1 UNK         0.0785 
    119 H119      -46.3882  -26.2909   14.9529 H         1 UNK         0.0785 
    120 H120      -47.2458  -27.1580   13.6783 H         1 UNK         0.0785 
    121 H121      -48.8634  -25.3185   14.4395 H         1 UNK         0.2998 
    122 H122      -51.0138  -23.4474   16.6486 H         1 UNK         0.0697 
    123 H123      -48.8343  -23.0778   14.5211 H         1 UNK         0.0825 
    124 H124      -48.6325  -22.7317   16.2350 H         1 UNK         0.0825 
    125 H125      -49.7959  -21.8205   15.2881 H         1 UNK         0.0825 
    126 H126      -51.0604  -23.6592   13.7574 H         1 UNK         0.3029 
    127 H127      -54.1566  -25.2667   13.5286 H         1 UNK         0.0897 
    128 H128      -53.7895  -22.2462   13.2405 H         1 UNK         0.0792 
    129 H129      -55.0089  -23.0537   14.2128 H         1 UNK         0.0792 
    130 H130      -55.0394  -23.2208   12.4652 H         1 UNK         0.0792 
    131 H131      -52.9562  -25.5120   11.7352 H         1 UNK         0.3086 
    132 H132      -51.7235  -25.2805   10.0030 H         1 UNK         0.0583 
    133 H133      -52.4728  -23.1424    8.9897 H         1 UNK         0.1020 
    134 H134      -50.9999  -22.3479    9.4665 H         1 UNK         0.1020 
    135 H135      -52.7347  -23.5998    6.4975 H         1 UNK         0.0694 
    136 H136      -51.6396  -24.6260    5.6046 H         1 UNK         0.0694 
    137 H137      -49.2319  -24.4447    9.6201 H         1 UNK         0.2989 
    138 H138      -47.1342  -25.5149   12.0477 H         1 UNK         0.1055 
    139 H139      -47.9494  -27.4230    9.7848 H         1 UNK         0.0806 
    140 H140      -47.9980  -27.8413   11.4879 H         1 UNK         0.0806 
    141 H141      -46.4577  -27.4742   10.7341 H         1 UNK         0.0806 
    142 H142      -46.9005  -25.3330    9.1678 H         1 UNK         0.3061 
    143 H143      -46.9442  -22.2328    8.6169 H         1 UNK         0.0734 
    144 H144      -44.1117  -22.5601    9.7351 H         1 UNK         0.0832 
    145 H145      -44.5715  -21.4469    8.4468 H         1 UNK         0.0832 
    146 H146      -45.2176  -21.2368   10.0639 H         1 UNK         0.0832 
    147 H147      -46.3974  -23.6188    6.9886 H         1 UNK         0.3156 
    148 H148      -44.6149  -24.5592    5.6121 H         1 UNK         0.0589 
    149 H149      -43.3071  -26.6227    5.2433 H         1 UNK         0.0808 
    150 H150      -42.5548  -25.6436    6.4907 H         1 UNK         0.0808 
    151 H151      -43.4738  -27.0729    6.9384 H         1 UNK         0.0808 
    152 H152      -45.7220  -27.1830    5.9688 H         1 UNK         0.3098 
    153 H153      -49.1191  -26.2837    5.3604 H         1 UNK         0.0720 
    154 H154      -47.0777  -27.7223    3.5586 H         1 UNK         0.0791 
    155 H155      -47.8805  -26.2254    3.1035 H         1 UNK         0.0791 
    156 H156      -48.8292  -27.6700    3.3473 H         1 UNK         0.0791 
    157 H157      -47.5476  -27.6861    6.9916 H         1 UNK         0.3028 
@<TRIPOS>BOND
     1    1    2 1    
     2    1   82 1    
     3    1   83 1    
     4    1   84 1    
     5    2    3 2    
     6    2    4 am   BACKBONE|DICT|INTERRES
     7    4    5 1    
     8    4   85 1    
     9    5    6 1    
    10    5   80 1    
    11    5   86 1    
    12    6    7 1    
    13    6   87 1    
    14    6   88 1    
    15    7    8 1    
    16    8    9 1    
    17    8   89 1    
    18    8   90 1    
    19    9   10 ar   
    20    9   14 ar   
    21   10   11 ar   
    22   10   91 1    
    23   11   12 ar   
    24   11   58 1    
    25   12   13 ar   
    26   12   92 1    
    27   13   14 ar   
    28   13   15 1    
    29   14   93 1    
    30   15   16 1    
    31   15   94 1    
    32   15   95 1    
    33   16   17 1    
    34   17   18 1    
    35   17   96 1    
    36   17   97 1    
    37   18   19 1    
    38   18   22 1    
    39   18   98 1    
    40   19   20 am   BACKBONE|DICT|INTERRES
    41   19   21 2    
    42   20   99 1    
    43   20  100 1    
    44   22   23 am   BACKBONE|DICT|INTERRES
    45   22  101 1    
    46   23   24 2    
    47   23   25 1    
    48   25   26 1    
    49   25   27 1    
    50   25  102 1    
    51   26  103 1    
    52   26  104 1    
    53   26  105 1    
    54   27   28 am   BACKBONE|DICT|INTERRES
    55   27  106 1    
    56   28   29 2    
    57   28   30 1    
    58   30   31 1    
    59   30   32 1    
    60   30  107 1    
    61   31  108 1    
    62   31  109 1    
    63   31  110 1    
    64   32   33 am   BACKBONE|DICT|INTERRES
    65   32  111 1    
    66   33   34 2    
    67   33   35 1    
    68   35   36 1    
    69   35   37 1    
    70   35  112 1    
    71   36  113 1    
    72   36  114 1    
    73   36  115 1    
    74   37   38 am   BACKBONE|DICT|INTERRES
    75   37  116 1    
    76   38   39 2    
    77   38   40 1    
    78   40   41 1    
    79   40   42 1    
    80   40  117 1    
    81   41  118 1    
    82   41  119 1    
    83   41  120 1    
    84   42   43 am   BACKBONE|DICT|INTERRES
    85   42  121 1    
    86   43   44 2    
    87   43   45 1    
    88   45   46 1    
    89   45   47 1    
    90   45  122 1    
    91   46  123 1    
    92   46  124 1    
    93   46  125 1    
    94   47   48 am   BACKBONE|DICT|INTERRES
    95   47  126 1    
    96   48   49 2    
    97   48   50 1    
    98   50   51 1    
    99   50   52 1    
   100   50  127 1    
   101   51  128 1    
   102   51  129 1    
   103   51  130 1    
   104   52   53 am   BACKBONE|DICT|INTERRES
   105   52  131 1    
   106   53   54 2    
   107   53   55 1    
   108   55   56 1    
   109   55   59 1    
   110   55  132 1    
   111   56   57 1    
   112   56  133 1    
   113   56  134 1    
   114   57   58 1    
   115   58  135 1    
   116   58  136 1    
   117   59   60 am   BACKBONE|DICT|INTERRES
   118   59  137 1    
   119   60   61 2    
   120   60   62 1    
   121   62   63 1    
   122   62   64 1    
   123   62  138 1    
   124   63  139 1    
   125   63  140 1    
   126   63  141 1    
   127   64   65 am   BACKBONE|DICT|INTERRES
   128   64  142 1    
   129   65   66 2    
   130   65   67 1    
   131   67   68 1    
   132   67   69 1    
   133   67  143 1    
   134   68  144 1    
   135   68  145 1    
   136   68  146 1    
   137   69   70 am   BACKBONE|DICT|INTERRES
   138   69  147 1    
   139   70   71 2    
   140   70   72 1    
   141   72   73 1    
   142   72   74 1    
   143   72  148 1    
   144   73  149 1    
   145   73  150 1    
   146   73  151 1    
   147   74   75 am   BACKBONE|DICT|INTERRES
   148   74  152 1    
   149   75   76 2    
   150   75   77 1    
   151   77   78 1    
   152   77   79 1    
   153   77  153 1    
   154   78  154 1    
   155   78  155 1    
   156   78  156 1    
   157   79   80 am   BACKBONE|DICT|INTERRES
   158   79  157 1    
   159   80   81 2    
@<TRIPOS>SUBSTRUCTURE
     1 UNK         1 GROUP             0       ****    0 ROOT    
