@<TRIPOS>MOLECULE
3R207
157   159    1
SMALL
USER_CHARGES


@<TRIPOS>ATOM
      1 CA        -45.6145  -30.7562    4.4074 C.3       0 UNK        -0.1975 
      2 C         -46.6429  -29.7017    4.7882 C.2       0 UNK         0.4852 
      3 O         -47.3845  -29.2268    3.9265 O.2       0 UNK        -0.5216 
      4 N         -46.6874  -29.3143    6.0703 N.am      1 UNK        -0.4461 
      5 CA        -47.6050  -28.3170    6.6367 C.3       1 UNK         0.0864 
      6 C6        -47.7985  -28.5645    8.1565 C.3       14 UNK        -0.0898 
      7 S7        -49.2603  -27.7243    8.8498 S.3       14 UNK        -0.2598 
      8 C8        -50.5708  -28.9432    8.5144 C.3       14 UNK         0.0286 
      9 C9        -51.8888  -28.4800    9.1131 C.ar      14 UNK        -0.0844 
     10 C10       -52.5767  -27.4063    8.5423 C.ar      14 UNK        -0.0881 
     11 C11       -53.7418  -26.9136    9.1363 C.ar      14 UNK        -0.0643 
     12 C12       -54.2408  -27.5289   10.2891 C.ar      14 UNK        -0.0930 
     13 C13       -53.5718  -28.6169   10.8571 C.ar      14 UNK        -0.0827 
     14 C14       -52.4003  -29.0924   10.2601 C.ar      14 UNK        -0.1249 
     15 C15       -54.0861  -29.2538   12.1384 C.3       14 UNK         0.0141 
     16 S16       -55.4008  -30.4615   11.8075 S.3       14 UNK        -0.2313 
     17 C17       -55.5396  -31.2709   13.4372 C.3       14 UNK        -0.0915 
     18 CA        -56.8911  -30.9808   14.1396 C.3       13 UNK         0.0968 
     19 C         -57.1006  -31.9238   15.3615 C.2       13 UNK         0.5732 
     20 N         -57.2086  -31.4216   16.5860 N.am      13 UNK        -0.7310 
     21 O         -57.1792  -33.1383   15.1922 O.2       13 UNK        -0.5035 
     22 N         -57.0546  -29.5496   14.4480 N.am      13 UNK        -0.4233 
     23 C         -58.2389  -28.9409   14.5962 C.2       13 UNK         0.4989 
     24 O         -59.3209  -29.5050   14.4267 O.2       13 UNK        -0.4996 
     25 CA        -58.2378  -27.4639   15.0312 C.3       12 UNK         0.0216 
     26 CB        -58.6906  -27.3368   16.4957 C.3       12 UNK        -0.1964 
     27 N         -56.9461  -26.7898   14.8809 N.am      12 UNK        -0.4276 
     28 C         -56.4063  -26.3829   13.7286 C.2       12 UNK         0.5020 
     29 O         -56.9307  -26.5743   12.6318 O.2       12 UNK        -0.5489 
     30 CA        -55.0621  -25.6297   13.7895 C.3       11 UNK         0.0294 
     31 CB        -55.2931  -24.1117   13.9104 C.3       11 UNK        -0.2019 
     32 N         -54.0807  -26.0881   14.7868 N.am      11 UNK        -0.4493 
     33 C         -54.1703  -26.1362   16.1243 C.2       11 UNK         0.4932 
     34 O         -55.1878  -25.8274   16.7460 O.2       11 UNK        -0.5029 
     35 CA        -52.9270  -26.5788   16.9223 C.3       10 UNK         0.0280 
     36 CB        -53.2894  -27.5873   18.0333 C.3       10 UNK        -0.1976 
     37 N         -51.7950  -27.0629   16.1193 N.am      10 UNK        -0.4242 
     38 C         -51.7132  -28.1849   15.3839 C.2       10 UNK         0.5072 
     39 O         -52.6492  -28.9718   15.2371 O.2       10 UNK        -0.5224 
     40 CA        -50.3637  -28.4689   14.6912 C.3       9 UNK         0.0343 
     41 CB        -50.5360  -29.1675   13.3338 C.3       9 UNK        -0.2003 
     42 N         -49.6183  -27.2313   14.4733 N.am      9 UNK        -0.4272 
     43 C         -48.4700  -26.8875   15.0712 C.2       9 UNK         0.4988 
     44 O         -47.8428  -27.6237   15.8330 O.2       9 UNK        -0.5108 
     45 CA        -47.9434  -25.4649   14.7997 C.3       8 UNK         0.0248 
     46 CB        -46.8042  -25.4989   13.7673 C.3       8 UNK        -0.2001 
     47 N         -48.9923  -24.5382   14.3541 N.am      8 UNK        -0.4140 
     48 C         -50.0062  -24.1233   15.1318 C.2       8 UNK         0.5028 
     49 O         -50.1299  -24.4508   16.3124 O.2       8 UNK        -0.5428 
     50 CA        -51.1016  -23.2509   14.4921 C.3       7 UNK         0.0264 
     51 CB        -50.8336  -21.7639   14.7719 C.3       7 UNK        -0.1988 
     52 N         -51.2735  -23.4457   13.0503 N.am      7 UNK        -0.4454 
     53 C         -51.6093  -24.5993   12.4533 C.2       7 UNK         0.5027 
     54 O         -51.7991  -25.6541   13.0617 O.2       7 UNK        -0.5083 
     55 CA        -51.7045  -24.5732   10.9136 C.3       6 UNK         0.0844 
     56 C56       -53.1125  -24.0856   10.4817 C.3       14 UNK        -0.0967 
     57 S57       -53.3812  -24.1995    8.6798 S.3       14 UNK        -0.2604 
     58 C58       -54.4304  -25.6873    8.5551 C.3       14 UNK         0.0134 
     59 N         -50.6359  -23.7908   10.2714 N.am      6 UNK        -0.4116 
     60 C         -49.3196  -23.9028   10.4998 C.2       5 UNK         0.5034 
     61 O         -48.8217  -24.6480   11.3481 O.2       5 UNK        -0.5045 
     62 CA        -48.4032  -22.9830    9.6868 C.3       5 UNK         0.0224 
     63 CB        -48.4321  -21.5466   10.2429 C.3       5 UNK        -0.1978 
     64 N         -47.0485  -23.5201    9.7603 N.am      5 UNK        -0.4737 
     65 C         -46.0598  -23.2897    8.8927 C.2       4 UNK         0.5027 
     66 O         -46.1624  -22.5147    7.9401 O.2       4 UNK        -0.5211 
     67 CA        -44.7345  -24.0407    9.1112 C.3       4 UNK         0.0297 
     68 CB        -44.7726  -25.0827   10.2498 C.3       4 UNK        -0.1993 
     69 N         -44.3946  -24.7131    7.8623 N.am      4 UNK        -0.4486 
     70 C         -43.2433  -24.5936    7.1876 C.2       3 UNK         0.4961 
     71 O         -42.2766  -23.9448    7.5916 O.2       3 UNK        -0.5105 
     72 CA        -43.1348  -25.3236    5.8315 C.3       3 UNK         0.0299 
     73 CB        -42.3085  -26.6116    5.9810 C.3       3 UNK        -0.1972 
     74 N         -44.4352  -25.6598    5.2452 N.am      3 UNK        -0.4305 
     75 C         -45.3083  -24.7721    4.7465 C.2       2 UNK         0.5006 
     76 O         -45.0453  -23.5808    4.5786 O.2       2 UNK        -0.5106 
     77 CA        -46.7190  -25.2842    4.3869 C.3       2 UNK         0.0296 
     78 CB        -46.8836  -25.3727    2.8601 C.3       2 UNK        -0.2002 
     79 N         -47.0945  -26.5762    4.9790 N.am      2 UNK        -0.4032 
     80 C         -47.1513  -26.8793    6.2847 C.2       1 UNK         0.5000 
     81 O         -46.8100  -26.0966    7.1720 O.2       1 UNK        -0.5238 
     82 H82       -45.0256  -31.0809    5.2651 H         1 UNK         0.0889 
     83 H83       -44.9308  -30.3596    3.6570 H         1 UNK         0.0889 
     84 H84       -46.1123  -31.6302    3.9876 H         1 UNK         0.0889 
     85 H85       -46.0358  -29.7228    6.7259 H         1 UNK         0.3028 
     86 H86       -48.5770  -28.4592    6.1587 H         1 UNK         0.0864 
     87 H87       -47.9062  -29.6326    8.3527 H         1 UNK         0.0720 
     88 H88       -46.9166  -28.2518    8.7191 H         1 UNK         0.0720 
     89 H89       -50.2823  -29.9122    8.9247 H         1 UNK         0.0814 
     90 H90       -50.6835  -29.0790    7.4379 H         1 UNK         0.0814 
     91 H91       -52.1767  -26.9191    7.6634 H         1 UNK         0.1469 
     92 H92       -55.1419  -27.1542   10.7545 H         1 UNK         0.1381 
     93 H93       -51.8709  -29.9235   10.7056 H         1 UNK         0.1206 
     94 H94       -53.2694  -29.7566   12.6556 H         1 UNK         0.0813 
     95 H95       -54.4534  -28.4872   12.8206 H         1 UNK         0.0813 
     96 H96       -54.7069  -30.9775   14.0794 H         1 UNK         0.0638 
     97 H97       -55.4199  -32.3421   13.2630 H         1 UNK         0.0638 
     98 H98       -57.6777  -31.2552   13.4340 H         1 UNK         0.0568 
     99 H99       -57.3498  -32.0473   17.3632 H         1 UNK         0.3450 
    100 H100      -57.1485  -30.4292   16.7410 H         1 UNK         0.3450 
    101 H101      -56.2109  -29.0230   14.6127 H         1 UNK         0.2987 
    102 H102      -58.9654  -26.9446   14.4036 H         1 UNK         0.0766 
    103 H103      -59.6650  -27.8036   16.6486 H         1 UNK         0.0798 
    104 H104      -58.7851  -26.2915   16.7913 H         1 UNK         0.0798 
    105 H105      -57.9877  -27.8152   17.1791 H         1 UNK         0.0798 
    106 H106      -56.4425  -26.5397   15.7321 H         1 UNK         0.3198 
    107 H107      -54.5829  -25.8132   12.8286 H         1 UNK         0.0843 
    108 H108      -55.7481  -23.8461   14.8652 H         1 UNK         0.0831 
    109 H109      -55.9580  -23.7537   13.1231 H         1 UNK         0.0831 
    110 H110      -54.3585  -23.5587   13.8191 H         1 UNK         0.0831 
    111 H111      -53.1831  -26.3403   14.3841 H         1 UNK         0.3133 
    112 H112      -52.5625  -25.6751   17.4128 H         1 UNK         0.0566 
    113 H113      -53.7296  -28.4987   17.6278 H         1 UNK         0.0814 
    114 H114      -54.0137  -27.1621   18.7293 H         1 UNK         0.0814 
    115 H115      -52.4123  -27.8685   18.6161 H         1 UNK         0.0814 
    116 H116      -50.9776  -26.4637   16.1500 H         1 UNK         0.3091 
    117 H117      -49.8099  -29.1394   15.3510 H         1 UNK         0.0702 
    118 H118      -49.5717  -29.3748   12.8697 H         1 UNK         0.0785 
    119 H119      -51.1068  -28.5434   12.6466 H         1 UNK         0.0785 
    120 H120      -51.0542  -30.1211   13.4395 H         1 UNK         0.0785 
    121 H121      -50.0761  -26.5534   13.8728 H         1 UNK         0.2998 
    122 H122      -47.5382  -25.0805   15.7381 H         1 UNK         0.0697 
    123 H123      -47.1201  -25.9588   12.8304 H         1 UNK         0.0825 
    124 H124      -45.9606  -26.0805   14.1413 H         1 UNK         0.0825 
    125 H125      -46.4346  -24.4977   13.5453 H         1 UNK         0.0825 
    126 H126      -48.9870  -24.2916   13.3696 H         1 UNK         0.3029 
    127 H127      -52.0444  -23.5240   14.9713 H         1 UNK         0.0897 
    128 H128      -49.9189  -21.4199   14.2873 H         1 UNK         0.0792 
    129 H129      -50.7237  -21.5816   15.8421 H         1 UNK         0.0792 
    130 H130      -51.6560  -21.1389   14.4232 H         1 UNK         0.0792 
    131 H131      -51.1198  -22.6366   12.4664 H         1 UNK         0.3086 
    132 H132      -51.5761  -25.6045   10.5799 H         1 UNK         0.0583 
    133 H133      -53.8944  -24.6546   10.9848 H         1 UNK         0.1020 
    134 H134      -53.2670  -23.0468   10.7801 H         1 UNK         0.1020 
    135 H135      -55.3813  -25.4985    9.0561 H         1 UNK         0.0694 
    136 H136      -54.6651  -25.8702    7.5056 H         1 UNK         0.0694 
    137 H137      -50.9470  -23.1522    9.5538 H         1 UNK         0.2989 
    138 H138      -48.7360  -22.9914    8.6464 H         1 UNK         0.1055 
    139 H139      -47.7824  -20.8851    9.6695 H         1 UNK         0.0806 
    140 H140      -48.1074  -21.5121   11.2836 H         1 UNK         0.0806 
    141 H141      -49.4366  -21.1245   10.1986 H         1 UNK         0.0806 
    142 H142      -46.9274  -24.2135   10.4889 H         1 UNK         0.3061 
    143 H143      -43.9845  -23.2864    9.3568 H         1 UNK         0.0734 
    144 H144      -45.5303  -25.8486   10.0761 H         1 UNK         0.0832 
    145 H145      -43.8119  -25.5886   10.3458 H         1 UNK         0.0832 
    146 H146      -44.9797  -24.6139   11.2123 H         1 UNK         0.0832 
    147 H147      -45.1676  -25.2249    7.4392 H         1 UNK         0.3156 
    148 H148      -42.6113  -24.6589    5.1409 H         1 UNK         0.0589 
    149 H149      -42.7858  -27.3224    6.6571 H         1 UNK         0.0808 
    150 H150      -41.3180  -26.3946    6.3842 H         1 UNK         0.0808 
    151 H151      -42.1630  -27.1050    5.0198 H         1 UNK         0.0808 
    152 H152      -44.7338  -26.6200    5.3278 H         1 UNK         0.3098 
    153 H153      -47.4264  -24.5428    4.7647 H         1 UNK         0.0720 
    154 H154      -46.6454  -24.4210    2.3822 H         1 UNK         0.0791 
    155 H155      -47.9088  -25.6222    2.5848 H         1 UNK         0.0791 
    156 H156      -46.2257  -26.1282    2.4279 H         1 UNK         0.0791 
    157 H157      -47.3335  -27.3225    4.3309 H         1 UNK         0.3028 
@<TRIPOS>BOND
     1    1    2 1    
     2    1   82 1    
     3    1   83 1    
     4    1   84 1    
     5    2    3 2    
     6    2    4 am   BACKBONE|DICT|INTERRES
     7    4    5 1    
     8    4   85 1    
     9    5    6 1    
    10    5   80 1    
    11    5   86 1    
    12    6    7 1    
    13    6   87 1    
    14    6   88 1    
    15    7    8 1    
    16    8    9 1    
    17    8   89 1    
    18    8   90 1    
    19    9   10 ar   
    20    9   14 ar   
    21   10   11 ar   
    22   10   91 1    
    23   11   12 ar   
    24   11   58 1    
    25   12   13 ar   
    26   12   92 1    
    27   13   14 ar   
    28   13   15 1    
    29   14   93 1    
    30   15   16 1    
    31   15   94 1    
    32   15   95 1    
    33   16   17 1    
    34   17   18 1    
    35   17   96 1    
    36   17   97 1    
    37   18   19 1    
    38   18   22 1    
    39   18   98 1    
    40   19   20 am   BACKBONE|DICT|INTERRES
    41   19   21 2    
    42   20   99 1    
    43   20  100 1    
    44   22   23 am   BACKBONE|DICT|INTERRES
    45   22  101 1    
    46   23   24 2    
    47   23   25 1    
    48   25   26 1    
    49   25   27 1    
    50   25  102 1    
    51   26  103 1    
    52   26  104 1    
    53   26  105 1    
    54   27   28 am   BACKBONE|DICT|INTERRES
    55   27  106 1    
    56   28   29 2    
    57   28   30 1    
    58   30   31 1    
    59   30   32 1    
    60   30  107 1    
    61   31  108 1    
    62   31  109 1    
    63   31  110 1    
    64   32   33 am   BACKBONE|DICT|INTERRES
    65   32  111 1    
    66   33   34 2    
    67   33   35 1    
    68   35   36 1    
    69   35   37 1    
    70   35  112 1    
    71   36  113 1    
    72   36  114 1    
    73   36  115 1    
    74   37   38 am   BACKBONE|DICT|INTERRES
    75   37  116 1    
    76   38   39 2    
    77   38   40 1    
    78   40   41 1    
    79   40   42 1    
    80   40  117 1    
    81   41  118 1    
    82   41  119 1    
    83   41  120 1    
    84   42   43 am   BACKBONE|DICT|INTERRES
    85   42  121 1    
    86   43   44 2    
    87   43   45 1    
    88   45   46 1    
    89   45   47 1    
    90   45  122 1    
    91   46  123 1    
    92   46  124 1    
    93   46  125 1    
    94   47   48 am   BACKBONE|DICT|INTERRES
    95   47  126 1    
    96   48   49 2    
    97   48   50 1    
    98   50   51 1    
    99   50   52 1    
   100   50  127 1    
   101   51  128 1    
   102   51  129 1    
   103   51  130 1    
   104   52   53 am   BACKBONE|DICT|INTERRES
   105   52  131 1    
   106   53   54 2    
   107   53   55 1    
   108   55   56 1    
   109   55   59 1    
   110   55  132 1    
   111   56   57 1    
   112   56  133 1    
   113   56  134 1    
   114   57   58 1    
   115   58  135 1    
   116   58  136 1    
   117   59   60 am   BACKBONE|DICT|INTERRES
   118   59  137 1    
   119   60   61 2    
   120   60   62 1    
   121   62   63 1    
   122   62   64 1    
   123   62  138 1    
   124   63  139 1    
   125   63  140 1    
   126   63  141 1    
   127   64   65 am   BACKBONE|DICT|INTERRES
   128   64  142 1    
   129   65   66 2    
   130   65   67 1    
   131   67   68 1    
   132   67   69 1    
   133   67  143 1    
   134   68  144 1    
   135   68  145 1    
   136   68  146 1    
   137   69   70 am   BACKBONE|DICT|INTERRES
   138   69  147 1    
   139   70   71 2    
   140   70   72 1    
   141   72   73 1    
   142   72   74 1    
   143   72  148 1    
   144   73  149 1    
   145   73  150 1    
   146   73  151 1    
   147   74   75 am   BACKBONE|DICT|INTERRES
   148   74  152 1    
   149   75   76 2    
   150   75   77 1    
   151   77   78 1    
   152   77   79 1    
   153   77  153 1    
   154   78  154 1    
   155   78  155 1    
   156   78  156 1    
   157   79   80 am   BACKBONE|DICT|INTERRES
   158   79  157 1    
   159   80   81 2    
@<TRIPOS>SUBSTRUCTURE
     1 UNK         1 GROUP             0       ****    0 ROOT    
