@<TRIPOS>MOLECULE
3R207
157   159    1
SMALL
USER_CHARGES


@<TRIPOS>ATOM
      1 CA        -50.6024  -30.9778    7.8232 C.3       0 UNK        -0.1975 
      2 C         -50.6983  -30.4168    6.4144 C.2       0 UNK         0.4852 
      3 O         -50.0469  -30.9345    5.5066 O.2       0 UNK        -0.5216 
      4 N         -51.5102  -29.3682    6.2227 N.am      1 UNK        -0.4461 
      5 CA        -51.7572  -28.7319    4.9211 C.3       1 UNK         0.0864 
      6 C6        -53.0191  -27.8346    4.9411 C.3       14 UNK        -0.0898 
      7 S7        -54.5197  -28.7433    5.4496 S.3       14 UNK        -0.2598 
      8 C8        -55.5231  -27.4281    6.2146 C.3       14 UNK         0.0286 
      9 C9        -54.9410  -26.9595    7.5408 C.ar      14 UNK        -0.0844 
     10 C10       -54.2368  -25.7549    7.6143 C.ar      14 UNK        -0.0881 
     11 C11       -53.6891  -25.3299    8.8256 C.ar      14 UNK        -0.0643 
     12 C12       -53.8570  -26.1139    9.9691 C.ar      14 UNK        -0.0930 
     13 C13       -54.5649  -27.3189    9.9207 C.ar      14 UNK        -0.0827 
     14 C14       -55.1129  -27.7288    8.6959 C.ar      14 UNK        -0.1249 
     15 C15       -54.6955  -28.1216   11.2200 C.3       14 UNK         0.0141 
     16 S16       -55.5692  -29.7242   11.1143 S.3       14 UNK        -0.2313 
     17 C17       -54.4186  -30.7199   10.1063 C.3       14 UNK        -0.0915 
     18 CA        -53.7464  -31.8811   10.8980 C.3       13 UNK         0.0968 
     19 C         -52.9723  -32.8621    9.9650 C.2       13 UNK         0.5732 
     20 N         -51.8339  -33.4109   10.3732 N.am      13 UNK        -0.7310 
     21 O         -53.4261  -33.1642    8.8638 O.2       13 UNK        -0.5035 
     22 N         -52.9850  -31.4428   12.0848 N.am      13 UNK        -0.4233 
     23 C         -51.9560  -30.5864   12.0931 C.2       13 UNK         0.4989 
     24 O         -51.5444  -29.9801   11.1044 O.2       13 UNK        -0.4996 
     25 CA        -51.2317  -30.4044   13.4298 C.3       12 UNK         0.0216 
     26 CB        -49.8319  -31.0395   13.3712 C.3       12 UNK        -0.1964 
     27 N         -51.0924  -28.9799   13.7176 N.am      12 UNK        -0.4276 
     28 C         -51.8411  -28.3046   14.5945 C.2       12 UNK         0.5020 
     29 O         -52.7678  -28.7973   15.2435 O.2       12 UNK        -0.5489 
     30 CA        -51.5051  -26.8125   14.7494 C.3       11 UNK         0.0294 
     31 CB        -52.3594  -25.9708   13.7913 C.3       11 UNK        -0.2019 
     32 N         -51.6681  -26.3197   16.1182 N.am      11 UNK        -0.4493 
     33 C         -50.9746  -26.7606   17.1797 C.2       11 UNK         0.4932 
     34 O         -50.1130  -27.6390   17.1100 O.2       11 UNK        -0.5029 
     35 CA        -51.2649  -26.1033   18.5423 C.3       10 UNK         0.0280 
     36 CB        -49.9897  -25.9749   19.3969 C.3       10 UNK        -0.1976 
     37 N         -51.8533  -24.7726   18.3828 N.am      10 UNK        -0.4242 
     38 C         -53.1273  -24.4491   18.6448 C.2       10 UNK         0.5072 
     39 O         -53.9627  -25.2526   19.0613 O.2       10 UNK        -0.5224 
     40 CA        -53.5602  -22.9871   18.4137 C.3       9 UNK         0.0343 
     41 CB        -53.7557  -22.2665   19.7582 C.3       9 UNK        -0.2003 
     42 N         -52.6306  -22.2084   17.5913 N.am      9 UNK        -0.4272 
     43 C         -52.4304  -22.3862   16.2790 C.2       9 UNK         0.4988 
     44 O         -53.0385  -23.2199   15.6070 O.2       9 UNK        -0.5108 
     45 CA        -51.3576  -21.5100   15.6005 C.3       8 UNK         0.0248 
     46 CB        -50.7241  -20.4465   16.5273 C.3       8 UNK        -0.2001 
     47 N         -50.3064  -22.3185   14.9730 N.am      8 UNK        -0.4140 
     48 C         -49.5538  -23.2703   15.5433 C.2       8 UNK         0.5028 
     49 O         -49.6615  -23.6034   16.7261 O.2       8 UNK        -0.5428 
     50 CA        -48.5055  -23.9563   14.6376 C.3       7 UNK         0.0264 
     51 CB        -47.7706  -25.1086   15.3479 C.3       7 UNK        -0.1988 
     52 N         -49.0594  -24.4578   13.3733 N.am      7 UNK        -0.4454 
     53 C         -49.4047  -23.7171   12.3122 C.2       7 UNK         0.5027 
     54 O         -49.3084  -22.4879   12.3015 O.2       7 UNK        -0.5083 
     55 CA        -49.9625  -24.4620   11.0764 C.3       6 UNK         0.0844 
     56 C56       -50.3377  -23.4801    9.9345 C.3       14 UNK        -0.0967 
     57 S57       -51.1525  -24.3076    8.5282 S.3       14 UNK        -0.2604 
     58 C58       -52.9115  -24.0274    8.9000 C.3       14 UNK         0.0134 
     59 N         -49.0472  -25.5110   10.6146 N.am      6 UNK        -0.4116 
     60 C         -48.8584  -26.7143   11.1742 C.2       5 UNK         0.5034 
     61 O         -49.4425  -27.0938   12.1908 O.2       5 UNK        -0.5045 
     62 CA        -47.8322  -27.6476   10.5118 C.3       5 UNK         0.0224 
     63 CB        -48.5429  -28.7129    9.6652 C.3       5 UNK        -0.1978 
     64 N         -46.8851  -26.9189    9.6647 N.am      5 UNK        -0.4737 
     65 C         -45.7306  -26.3949   10.1004 C.2       4 UNK         0.5027 
     66 O         -45.3201  -26.5164   11.2545 O.2       4 UNK        -0.5211 
     67 CA        -44.8860  -25.5989    9.0868 C.3       4 UNK         0.0297 
     68 CB        -43.8183  -26.5049    8.4528 C.3       4 UNK        -0.1993 
     69 N         -45.6791  -24.9742    8.0251 N.am      4 UNK        -0.4486 
     70 C         -46.5611  -23.9828    8.2127 C.2       3 UNK         0.4961 
     71 O         -46.7585  -23.4398    9.2989 O.2       3 UNK        -0.5105 
     72 CA        -47.3939  -23.5451    6.9936 C.3       3 UNK         0.0299 
     73 CB        -46.7386  -22.3362    6.3071 C.3       3 UNK        -0.1972 
     74 N         -47.6418  -24.5953    5.9961 N.am      3 UNK        -0.4305 
     75 C         -48.2279  -25.7766    6.2358 C.2       2 UNK         0.5006 
     76 O         -48.5238  -26.1886    7.3599 O.2       2 UNK        -0.5106 
     77 CA        -48.4881  -26.6693    5.0212 C.3       2 UNK         0.0296 
     78 CB        -47.2807  -27.5815    4.7418 C.3       2 UNK        -0.2002 
     79 N         -49.6673  -27.4800    5.3031 N.am      2 UNK        -0.4032 
     80 C         -50.5414  -27.9351    4.3972 C.2       1 UNK         0.5000 
     81 O         -50.4251  -27.7461    3.1844 O.2       1 UNK        -0.5238 
     82 H82       -50.9713  -32.0023    7.8387 H         1 UNK         0.0889 
     83 H83       -49.5662  -30.9873    8.1578 H         1 UNK         0.0889 
     84 H84       -51.1864  -30.3940    8.5336 H         1 UNK         0.0889 
     85 H85       -52.0471  -28.9998    6.9956 H         1 UNK         0.3028 
     86 H86       -51.9347  -29.5318    4.1985 H         1 UNK         0.0864 
     87 H87       -53.2075  -27.4150    3.9508 H         1 UNK         0.0720 
     88 H88       -52.8583  -26.9858    5.6057 H         1 UNK         0.0720 
     89 H89       -56.5328  -27.8074    6.3789 H         1 UNK         0.0814 
     90 H90       -55.6225  -26.5954    5.5164 H         1 UNK         0.0814 
     91 H91       -54.1030  -25.1512    6.7270 H         1 UNK         0.1469 
     92 H92       -53.4307  -25.7796   10.9033 H         1 UNK         0.1381 
     93 H93       -55.6682  -28.6521    8.6205 H         1 UNK         0.1206 
     94 H94       -55.2225  -27.5058   11.9501 H         1 UNK         0.0813 
     95 H95       -53.7009  -28.2934   11.6314 H         1 UNK         0.0813 
     96 H96       -55.0062  -31.1180    9.2774 H         1 UNK         0.0638 
     97 H97       -53.6677  -30.0760    9.6474 H         1 UNK         0.0638 
     98 H98       -54.5555  -32.4915   11.3001 H         1 UNK         0.0568 
     99 H99       -51.4538  -33.1923   11.2787 H         1 UNK         0.3450 
    100 H100      -51.3563  -34.0590    9.7677 H         1 UNK         0.3450 
    101 H101      -53.2465  -31.8936   12.9496 H         1 UNK         0.2987 
    102 H102      -51.7976  -30.8996   14.2220 H         1 UNK         0.0766 
    103 H103      -49.8940  -32.1085   13.1642 H         1 UNK         0.0798 
    104 H104      -49.3065  -30.9235   14.3194 H         1 UNK         0.0798 
    105 H105      -49.2149  -30.5904   12.5915 H         1 UNK         0.0798 
    106 H106      -50.4295  -28.4644   13.1421 H         1 UNK         0.3198 
    107 H107      -50.4547  -26.6755   14.4959 H         1 UNK         0.0843 
    108 H108      -52.0516  -24.9256   13.7944 H         1 UNK         0.0831 
    109 H109      -53.4180  -26.0125   14.0509 H         1 UNK         0.0831 
    110 H110      -52.2573  -26.3378   12.7706 H         1 UNK         0.0831 
    111 H111      -52.3568  -25.5942   16.2606 H         1 UNK         0.3133 
    112 H112      -51.9547  -26.7654   19.0689 H         1 UNK         0.0566 
    113 H113      -49.5550  -26.9528   19.6077 H         1 UNK         0.0814 
    114 H114      -49.2277  -25.3797   18.8916 H         1 UNK         0.0814 
    115 H115      -50.2014  -25.5040   20.3569 H         1 UNK         0.0814 
    116 H116      -51.2354  -24.0751   17.9765 H         1 UNK         0.3091 
    117 H117      -54.5230  -23.0144   17.8988 H         1 UNK         0.0702 
    118 H118      -54.1391  -21.2559   19.6157 H         1 UNK         0.0785 
    119 H119      -52.8224  -22.1975   20.3186 H         1 UNK         0.0785 
    120 H120      -54.4736  -22.7968   20.3856 H         1 UNK         0.0785 
    121 H121      -52.0744  -21.5143   18.0694 H         1 UNK         0.2998 
    122 H122      -51.8660  -20.9837   14.7915 H         1 UNK         0.0697 
    123 H123      -50.1742  -20.8951   17.3558 H         1 UNK         0.0825 
    124 H124      -50.0236  -19.8197   15.9753 H         1 UNK         0.0825 
    125 H125      -51.4799  -19.7795   16.9443 H         1 UNK         0.0825 
    126 H126      -50.1354  -22.1399   13.9870 H         1 UNK         0.3029 
    127 H127      -47.7602  -23.1941   14.4001 H         1 UNK         0.0897 
    128 H128      -46.9925  -25.5343   14.7139 H         1 UNK         0.0792 
    129 H129      -47.2865  -24.7604   16.2613 H         1 UNK         0.0792 
    130 H130      -48.4511  -25.9121   15.6286 H         1 UNK         0.0792 
    131 H131      -49.1700  -25.4628   13.2871 H         1 UNK         0.3086 
    132 H132      -50.8852  -24.9455   11.3996 H         1 UNK         0.0583 
    133 H133      -50.9863  -22.6819   10.3003 H         1 UNK         0.1020 
    134 H134      -49.4441  -22.9771    9.5620 H         1 UNK         0.1020 
    135 H135      -53.0364  -23.5859    9.8896 H         1 UNK         0.0694 
    136 H136      -53.3150  -23.3033    8.1907 H         1 UNK         0.0694 
    137 H137      -48.5202  -25.2941    9.7806 H         1 UNK         0.2989 
    138 H138      -47.2888  -28.1579   11.3105 H         1 UNK         0.1055 
    139 H139      -49.1627  -29.3519   10.2934 H         1 UNK         0.0806 
    140 H140      -49.1942  -28.2679    8.9122 H         1 UNK         0.0806 
    141 H141      -47.8280  -29.3585    9.1552 H         1 UNK         0.0806 
    142 H142      -47.1872  -26.7357    8.7121 H         1 UNK         0.3061 
    143 H143      -44.3779  -24.8041    9.6374 H         1 UNK         0.0734 
    144 H144      -43.1576  -25.9411    7.7939 H         1 UNK         0.0832 
    145 H145      -43.1925  -26.9641    9.2194 H         1 UNK         0.0832 
    146 H146      -44.2660  -27.3125    7.8721 H         1 UNK         0.0832 
    147 H147      -45.5845  -25.3573    7.0959 H         1 UNK         0.3156 
    148 H148      -48.3693  -23.2305    7.3689 H         1 UNK         0.0589 
    149 H149      -47.3726  -21.9352    5.5160 H         1 UNK         0.0808 
    150 H150      -46.5662  -21.5282    7.0198 H         1 UNK         0.0808 
    151 H151      -45.7739  -22.5944    5.8683 H         1 UNK         0.0808 
    152 H152      -47.4111  -24.3622    5.0405 H         1 UNK         0.3098 
    153 H153      -48.6799  -26.0336    4.1541 H         1 UNK         0.0720 
    154 H154      -46.3846  -26.9964    4.5314 H         1 UNK         0.0791 
    155 H155      -47.0598  -28.2276    5.5928 H         1 UNK         0.0791 
    156 H156      -47.4600  -28.2205    3.8769 H         1 UNK         0.0791 
    157 H157      -49.8491  -27.6244    6.2884 H         1 UNK         0.3028 
@<TRIPOS>BOND
     1    1    2 1    
     2    1   82 1    
     3    1   83 1    
     4    1   84 1    
     5    2    3 2    
     6    2    4 am   BACKBONE|DICT|INTERRES
     7    4    5 1    
     8    4   85 1    
     9    5    6 1    
    10    5   80 1    
    11    5   86 1    
    12    6    7 1    
    13    6   87 1    
    14    6   88 1    
    15    7    8 1    
    16    8    9 1    
    17    8   89 1    
    18    8   90 1    
    19    9   10 ar   
    20    9   14 ar   
    21   10   11 ar   
    22   10   91 1    
    23   11   12 ar   
    24   11   58 1    
    25   12   13 ar   
    26   12   92 1    
    27   13   14 ar   
    28   13   15 1    
    29   14   93 1    
    30   15   16 1    
    31   15   94 1    
    32   15   95 1    
    33   16   17 1    
    34   17   18 1    
    35   17   96 1    
    36   17   97 1    
    37   18   19 1    
    38   18   22 1    
    39   18   98 1    
    40   19   20 am   BACKBONE|DICT|INTERRES
    41   19   21 2    
    42   20   99 1    
    43   20  100 1    
    44   22   23 am   BACKBONE|DICT|INTERRES
    45   22  101 1    
    46   23   24 2    
    47   23   25 1    
    48   25   26 1    
    49   25   27 1    
    50   25  102 1    
    51   26  103 1    
    52   26  104 1    
    53   26  105 1    
    54   27   28 am   BACKBONE|DICT|INTERRES
    55   27  106 1    
    56   28   29 2    
    57   28   30 1    
    58   30   31 1    
    59   30   32 1    
    60   30  107 1    
    61   31  108 1    
    62   31  109 1    
    63   31  110 1    
    64   32   33 am   BACKBONE|DICT|INTERRES
    65   32  111 1    
    66   33   34 2    
    67   33   35 1    
    68   35   36 1    
    69   35   37 1    
    70   35  112 1    
    71   36  113 1    
    72   36  114 1    
    73   36  115 1    
    74   37   38 am   BACKBONE|DICT|INTERRES
    75   37  116 1    
    76   38   39 2    
    77   38   40 1    
    78   40   41 1    
    79   40   42 1    
    80   40  117 1    
    81   41  118 1    
    82   41  119 1    
    83   41  120 1    
    84   42   43 am   BACKBONE|DICT|INTERRES
    85   42  121 1    
    86   43   44 2    
    87   43   45 1    
    88   45   46 1    
    89   45   47 1    
    90   45  122 1    
    91   46  123 1    
    92   46  124 1    
    93   46  125 1    
    94   47   48 am   BACKBONE|DICT|INTERRES
    95   47  126 1    
    96   48   49 2    
    97   48   50 1    
    98   50   51 1    
    99   50   52 1    
   100   50  127 1    
   101   51  128 1    
   102   51  129 1    
   103   51  130 1    
   104   52   53 am   BACKBONE|DICT|INTERRES
   105   52  131 1    
   106   53   54 2    
   107   53   55 1    
   108   55   56 1    
   109   55   59 1    
   110   55  132 1    
   111   56   57 1    
   112   56  133 1    
   113   56  134 1    
   114   57   58 1    
   115   58  135 1    
   116   58  136 1    
   117   59   60 am   BACKBONE|DICT|INTERRES
   118   59  137 1    
   119   60   61 2    
   120   60   62 1    
   121   62   63 1    
   122   62   64 1    
   123   62  138 1    
   124   63  139 1    
   125   63  140 1    
   126   63  141 1    
   127   64   65 am   BACKBONE|DICT|INTERRES
   128   64  142 1    
   129   65   66 2    
   130   65   67 1    
   131   67   68 1    
   132   67   69 1    
   133   67  143 1    
   134   68  144 1    
   135   68  145 1    
   136   68  146 1    
   137   69   70 am   BACKBONE|DICT|INTERRES
   138   69  147 1    
   139   70   71 2    
   140   70   72 1    
   141   72   73 1    
   142   72   74 1    
   143   72  148 1    
   144   73  149 1    
   145   73  150 1    
   146   73  151 1    
   147   74   75 am   BACKBONE|DICT|INTERRES
   148   74  152 1    
   149   75   76 2    
   150   75   77 1    
   151   77   78 1    
   152   77   79 1    
   153   77  153 1    
   154   78  154 1    
   155   78  155 1    
   156   78  156 1    
   157   79   80 am   BACKBONE|DICT|INTERRES
   158   79  157 1    
   159   80   81 2    
@<TRIPOS>SUBSTRUCTURE
     1 UNK         1 GROUP             0       ****    0 ROOT    
