@<TRIPOS>MOLECULE
3R207
157   159    1
SMALL
USER_CHARGES


@<TRIPOS>ATOM
      1 CA        -51.9368  -27.5897    2.7783 C.3       0 UNK        -0.1975 
      2 C         -51.2784  -28.8833    2.3033 C.2       0 UNK         0.4852 
      3 O         -51.5565  -29.3267    1.1900 O.2       0 UNK        -0.5216 
      4 N         -50.4192  -29.5325    3.1022 N.am      1 UNK        -0.4461 
      5 CA        -49.9260  -29.0954    4.4133 C.3       1 UNK         0.0864 
      6 C6        -49.4188  -30.3076    5.2376 C.3       14 UNK        -0.0898 
      7 S7        -49.3948  -29.9715    7.0292 S.3       14 UNK        -0.2598 
      8 C8        -51.1179  -30.3394    7.4781 C.3       14 UNK         0.0286 
      9 C9        -51.5023  -29.6037    8.7501 C.ar      14 UNK        -0.0844 
     10 C10       -52.0547  -28.3215    8.6811 C.ar      14 UNK        -0.0881 
     11 C11       -52.3939  -27.6280    9.8468 C.ar      14 UNK        -0.0643 
     12 C12       -52.1714  -28.2289   11.0896 C.ar      14 UNK        -0.0930 
     13 C13       -51.6464  -29.5248   11.1697 C.ar      14 UNK        -0.0827 
     14 C14       -51.3050  -30.2022    9.9961 C.ar      14 UNK        -0.1249 
     15 C15       -51.4497  -30.2046   12.5180 C.3       14 UNK         0.0141 
     16 S16       -52.9455  -30.1583   13.5604 S.3       14 UNK        -0.2313 
     17 C17       -54.0874  -31.3083   12.7136 C.3       14 UNK        -0.0915 
     18 CA        -54.7969  -30.7508   11.4384 C.3       13 UNK         0.0968 
     19 C         -55.8689  -31.7338   10.8794 C.2       13 UNK         0.5732 
     20 N         -56.9707  -31.2596   10.3100 N.am      13 UNK        -0.7310 
     21 O         -55.6881  -32.9485   10.9302 O.2       13 UNK        -0.5035 
     22 N         -55.2375  -29.3481   11.5504 N.am      13 UNK        -0.4233 
     23 C         -56.1073  -28.8538   12.4375 C.2       13 UNK         0.4989 
     24 O         -56.7281  -29.5296   13.2614 O.2       13 UNK        -0.4996 
     25 CA        -56.3445  -27.3364   12.3723 C.3       12 UNK         0.0216 
     26 CB        -57.6792  -27.0225   11.6766 C.3       12 UNK        -0.1964 
     27 N         -56.3501  -26.7663   13.7194 N.am      12 UNK        -0.4276 
     28 C         -55.2443  -26.5270   14.4348 C.2       12 UNK         0.5020 
     29 O         -54.1004  -26.6515   13.9896 O.2       12 UNK        -0.5489 
     30 CA        -55.4671  -26.1167   15.9021 C.3       11 UNK         0.0294 
     31 CB        -55.8068  -27.3508   16.7551 C.3       11 UNK        -0.2019 
     32 N         -54.2791  -25.4788   16.4663 N.am      11 UNK        -0.4493 
     33 C         -53.8713  -24.2295   16.2189 C.2       11 UNK         0.4932 
     34 O         -54.5432  -23.4028   15.6004 O.2       11 UNK        -0.5029 
     35 CA        -52.4730  -23.8333   16.7321 C.3       10 UNK         0.0280 
     36 CB        -52.5104  -23.3922   18.2084 C.3       10 UNK        -0.1976 
     37 N         -51.4423  -24.8526   16.4796 N.am      10 UNK        -0.4242 
     38 C         -51.3026  -26.0653   17.0349 C.2       10 UNK         0.5072 
     39 O         -52.0260  -26.4920   17.9365 O.2       10 UNK        -0.5224 
     40 CA        -50.2227  -26.9941   16.4594 C.3       9 UNK         0.0343 
     41 CB        -50.8456  -27.9456   15.4306 C.3       9 UNK        -0.2003 
     42 N         -49.0929  -26.2948   15.8441 N.am      9 UNK        -0.4272 
     43 C         -48.0897  -25.7443   16.5418 C.2       9 UNK         0.4988 
     44 O         -48.0402  -25.7242   17.7725 O.2       9 UNK        -0.5108 
     45 CA        -46.9344  -25.1296   15.7349 C.3       8 UNK         0.0248 
     46 CB        -46.0266  -26.2296   15.1603 C.3       8 UNK        -0.2001 
     47 N         -47.3968  -24.2546   14.6571 N.am      8 UNK        -0.4140 
     48 C         -48.0020  -23.0740   14.8524 C.2       8 UNK         0.5028 
     49 O         -48.1889  -22.5720   15.9614 O.2       8 UNK        -0.5428 
     50 CA        -48.4987  -22.3285   13.6027 C.3       7 UNK         0.0264 
     51 CB        -47.3546  -21.5322   12.9553 C.3       7 UNK        -0.1988 
     52 N         -49.1083  -23.2121   12.6064 N.am      7 UNK        -0.4454 
     53 C         -50.2106  -23.9487   12.8098 C.2       7 UNK         0.5027 
     54 O         -50.8467  -23.9460   13.8616 O.2       7 UNK        -0.5083 
     55 CA        -50.6580  -24.8689   11.6591 C.3       6 UNK         0.0844 
     56 C56       -51.4324  -24.0613   10.5882 C.3       14 UNK        -0.0967 
     57 S57       -51.8758  -25.0089    9.0938 S.3       14 UNK        -0.2604 
     58 C58       -53.0355  -26.2502    9.7487 C.3       14 UNK         0.0134 
     59 N         -49.5331  -25.6249   11.1089 N.am      6 UNK        -0.4116 
     60 C         -48.7984  -26.5140   11.7913 C.2       5 UNK         0.5034 
     61 O         -48.9923  -26.8213   12.9678 O.2       5 UNK        -0.5045 
     62 CA        -47.5968  -27.1076   11.0453 C.3       5 UNK         0.0224 
     63 CB        -48.0451  -28.2283   10.0937 C.3       5 UNK        -0.1978 
     64 N         -46.8651  -26.0759   10.3044 N.am      5 UNK        -0.4737 
     65 C         -46.1686  -25.0897   10.8912 C.2       4 UNK         0.5027 
     66 O         -46.0344  -24.9807   12.1095 O.2       4 UNK        -0.5211 
     67 CA        -45.5530  -24.0200    9.9733 C.3       4 UNK         0.0297 
     68 CB        -44.1714  -24.4705    9.4737 C.3       4 UNK        -0.1993 
     69 N         -46.4023  -23.6844    8.8288 N.am      4 UNK        -0.4486 
     70 C         -47.6309  -23.1539    8.9134 C.2       3 UNK         0.4961 
     71 O         -48.1675  -22.8367    9.9736 O.2       3 UNK        -0.5105 
     72 CA        -48.4106  -22.9805    7.5986 C.3       3 UNK         0.0299 
     73 CB        -48.2467  -21.5493    7.0638 C.3       3 UNK        -0.1972 
     74 N         -48.0366  -23.9412    6.5535 N.am      3 UNK        -0.4305 
     75 C         -48.1868  -25.2685    6.6537 C.2       2 UNK         0.5006 
     76 O         -48.6176  -25.8409    7.6579 O.2       2 UNK        -0.5106 
     77 CA        -47.7367  -26.1022    5.4528 C.3       2 UNK         0.0296 
     78 CB        -46.2776  -26.5638    5.6253 C.3       2 UNK        -0.2002 
     79 N         -48.6254  -27.2529    5.3619 N.am      2 UNK        -0.4032 
     80 C         -48.8554  -27.9889    4.2709 C.2       1 UNK         0.5000 
     81 O         -48.2764  -27.8166    3.1942 O.2       1 UNK        -0.5238 
     82 H82       -52.6190  -27.2092    2.0183 H         1 UNK         0.0889 
     83 H83       -51.1935  -26.8164    2.9682 H         1 UNK         0.0889 
     84 H84       -52.5167  -27.7564    3.6854 H         1 UNK         0.0889 
     85 H85       -49.9806  -30.3676    2.7417 H         1 UNK         0.3028 
     86 H86       -50.7707  -28.6593    4.9489 H         1 UNK         0.0864 
     87 H87       -48.4200  -30.6124    4.9185 H         1 UNK         0.0720 
     88 H88       -50.0594  -31.1763    5.0739 H         1 UNK         0.0720 
     89 H89       -51.2373  -31.4163    7.6064 H         1 UNK         0.0814 
     90 H90       -51.7906  -30.0505    6.6694 H         1 UNK         0.0814 
     91 H91       -52.2161  -27.8554    7.7188 H         1 UNK         0.1469 
     92 H92       -52.4366  -27.7061   11.9991 H         1 UNK         0.1381 
     93 H93       -50.8846  -31.1972   10.0492 H         1 UNK         0.1206 
     94 H94       -50.6367  -29.6985   13.0376 H         1 UNK         0.0813 
     95 H95       -51.1371  -31.2426   12.3953 H         1 UNK         0.0813 
     96 H96       -54.8361  -31.6031   13.4507 H         1 UNK         0.0638 
     97 H97       -53.5356  -32.2177   12.4698 H         1 UNK         0.0638 
     98 H98       -54.0472  -30.7315   10.6493 H         1 UNK         0.0568 
     99 H99       -57.6519  -31.9046    9.9420 H         1 UNK         0.3450 
    100 H100      -57.1309  -30.2674   10.2533 H         1 UNK         0.3450 
    101 H101      -54.7847  -28.7144   10.9091 H         1 UNK         0.2987 
    102 H102      -55.5410  -26.8690   11.7987 H         1 UNK         0.0766 
    103 H103      -57.8513  -25.9476   11.6152 H         1 UNK         0.0798 
    104 H104      -58.5250  -27.4687   12.2015 H         1 UNK         0.0798 
    105 H105      -57.6881  -27.4091   10.6567 H         1 UNK         0.0798 
    106 H106      -57.2497  -26.6914   14.1722 H         1 UNK         0.3198 
    107 H107      -56.2990  -25.4103   15.9469 H         1 UNK         0.0843 
    108 H108      -55.0026  -28.0879   16.7315 H         1 UNK         0.0831 
    109 H109      -56.7099  -27.8452   16.3945 H         1 UNK         0.0831 
    110 H110      -55.9820  -27.0787   17.7961 H         1 UNK         0.0831 
    111 H111      -53.6361  -26.0756   16.9783 H         1 UNK         0.3133 
    112 H112      -52.1621  -22.9668   16.1463 H         1 UNK         0.0566 
    113 H113      -51.5253  -23.0765   18.5519 H         1 UNK         0.0814 
    114 H114      -53.1871  -22.5472   18.3410 H         1 UNK         0.0814 
    115 H115      -52.8578  -24.1875   18.8681 H         1 UNK         0.0814 
    116 H116      -50.8693  -24.6477   15.6648 H         1 UNK         0.3091 
    117 H117      -49.8440  -27.6007   17.2850 H         1 UNK         0.0702 
    118 H118      -50.1145  -28.6727   15.0790 H         1 UNK         0.0785 
    119 H119      -51.2336  -27.4083   14.5634 H         1 UNK         0.0785 
    120 H120      -51.6765  -28.5034   15.8647 H         1 UNK         0.0785 
    121 H121      -49.0452  -26.3091   14.8278 H         1 UNK         0.2998 
    122 H122      -46.3357  -24.5263   16.4207 H         1 UNK         0.0697 
    123 H123      -46.5490  -26.8436   14.4256 H         1 UNK         0.0825 
    124 H124      -45.6691  -26.8939   15.9482 H         1 UNK         0.0825 
    125 H125      -45.1494  -25.8033   14.6732 H         1 UNK         0.0825 
    126 H126      -47.2200  -24.5662   13.7067 H         1 UNK         0.3029 
    127 H127      -49.2659  -21.6215   13.9258 H         1 UNK         0.0897 
    128 H128      -47.7109  -20.9398   12.1122 H         1 UNK         0.0792 
    129 H129      -46.9051  -20.8421   13.6705 H         1 UNK         0.0792 
    130 H130      -46.5631  -22.1882   12.5917 H         1 UNK         0.0792 
    131 H131      -48.6750  -23.2258   11.6838 H         1 UNK         0.3086 
    132 H132      -51.3458  -25.5975   12.0910 H         1 UNK         0.0583 
    133 H133      -52.3467  -23.6467   11.0174 H         1 UNK         0.1020 
    134 H134      -50.8453  -23.2029   10.2560 H         1 UNK         0.1020 
    135 H135      -53.4259  -25.9286   10.7156 H         1 UNK         0.0694 
    136 H136      -53.8950  -26.3089    9.0796 H         1 UNK         0.0694 
    137 H137      -49.3066  -25.4508   10.1390 H         1 UNK         0.2989 
    138 H138      -46.9211  -27.5374   11.7882 H         1 UNK         0.1055 
    139 H139      -48.5253  -29.0365   10.6470 H         1 UNK         0.0806 
    140 H140      -47.2018  -28.6601    9.5551 H         1 UNK         0.0806 
    141 H141      -48.7683  -27.8751    9.3576 H         1 UNK         0.0806 
    142 H142      -46.9921  -26.0580    9.3007 H         1 UNK         0.3061 
    143 H143      -45.4227  -23.1121   10.5658 H         1 UNK         0.0734 
    144 H144      -43.6828  -23.6870    8.8942 H         1 UNK         0.0832 
    145 H145      -43.5141  -24.7083   10.3114 H         1 UNK         0.0832 
    146 H146      -44.2367  -25.3620    8.8484 H         1 UNK         0.0832 
    147 H147      -46.0427  -23.9036    7.9118 H         1 UNK         0.3156 
    148 H148      -49.4667  -23.1396    7.8275 H         1 UNK         0.0589 
    149 H149      -47.2130  -21.3351    6.7893 H         1 UNK         0.0808 
    150 H150      -48.8713  -21.3783    6.1869 H         1 UNK         0.0808 
    151 H151      -48.5422  -20.8164    7.8163 H         1 UNK         0.0808 
    152 H152      -47.6633  -23.5558    5.6974 H         1 UNK         0.3098 
    153 H153      -47.8316  -25.5025    4.5450 H         1 UNK         0.0720 
    154 H154      -45.9433  -27.1527    4.7711 H         1 UNK         0.0791 
    155 H155      -46.1533  -27.1752    6.5204 H         1 UNK         0.0791 
    156 H156      -45.6028  -25.7116    5.7127 H         1 UNK         0.0791 
    157 H157      -49.1192  -27.4574    6.2240 H         1 UNK         0.3028 
@<TRIPOS>BOND
     1    1    2 1    
     2    1   82 1    
     3    1   83 1    
     4    1   84 1    
     5    2    3 2    
     6    2    4 am   BACKBONE|DICT|INTERRES
     7    4    5 1    
     8    4   85 1    
     9    5    6 1    
    10    5   80 1    
    11    5   86 1    
    12    6    7 1    
    13    6   87 1    
    14    6   88 1    
    15    7    8 1    
    16    8    9 1    
    17    8   89 1    
    18    8   90 1    
    19    9   10 ar   
    20    9   14 ar   
    21   10   11 ar   
    22   10   91 1    
    23   11   12 ar   
    24   11   58 1    
    25   12   13 ar   
    26   12   92 1    
    27   13   14 ar   
    28   13   15 1    
    29   14   93 1    
    30   15   16 1    
    31   15   94 1    
    32   15   95 1    
    33   16   17 1    
    34   17   18 1    
    35   17   96 1    
    36   17   97 1    
    37   18   19 1    
    38   18   22 1    
    39   18   98 1    
    40   19   20 am   BACKBONE|DICT|INTERRES
    41   19   21 2    
    42   20   99 1    
    43   20  100 1    
    44   22   23 am   BACKBONE|DICT|INTERRES
    45   22  101 1    
    46   23   24 2    
    47   23   25 1    
    48   25   26 1    
    49   25   27 1    
    50   25  102 1    
    51   26  103 1    
    52   26  104 1    
    53   26  105 1    
    54   27   28 am   BACKBONE|DICT|INTERRES
    55   27  106 1    
    56   28   29 2    
    57   28   30 1    
    58   30   31 1    
    59   30   32 1    
    60   30  107 1    
    61   31  108 1    
    62   31  109 1    
    63   31  110 1    
    64   32   33 am   BACKBONE|DICT|INTERRES
    65   32  111 1    
    66   33   34 2    
    67   33   35 1    
    68   35   36 1    
    69   35   37 1    
    70   35  112 1    
    71   36  113 1    
    72   36  114 1    
    73   36  115 1    
    74   37   38 am   BACKBONE|DICT|INTERRES
    75   37  116 1    
    76   38   39 2    
    77   38   40 1    
    78   40   41 1    
    79   40   42 1    
    80   40  117 1    
    81   41  118 1    
    82   41  119 1    
    83   41  120 1    
    84   42   43 am   BACKBONE|DICT|INTERRES
    85   42  121 1    
    86   43   44 2    
    87   43   45 1    
    88   45   46 1    
    89   45   47 1    
    90   45  122 1    
    91   46  123 1    
    92   46  124 1    
    93   46  125 1    
    94   47   48 am   BACKBONE|DICT|INTERRES
    95   47  126 1    
    96   48   49 2    
    97   48   50 1    
    98   50   51 1    
    99   50   52 1    
   100   50  127 1    
   101   51  128 1    
   102   51  129 1    
   103   51  130 1    
   104   52   53 am   BACKBONE|DICT|INTERRES
   105   52  131 1    
   106   53   54 2    
   107   53   55 1    
   108   55   56 1    
   109   55   59 1    
   110   55  132 1    
   111   56   57 1    
   112   56  133 1    
   113   56  134 1    
   114   57   58 1    
   115   58  135 1    
   116   58  136 1    
   117   59   60 am   BACKBONE|DICT|INTERRES
   118   59  137 1    
   119   60   61 2    
   120   60   62 1    
   121   62   63 1    
   122   62   64 1    
   123   62  138 1    
   124   63  139 1    
   125   63  140 1    
   126   63  141 1    
   127   64   65 am   BACKBONE|DICT|INTERRES
   128   64  142 1    
   129   65   66 2    
   130   65   67 1    
   131   67   68 1    
   132   67   69 1    
   133   67  143 1    
   134   68  144 1    
   135   68  145 1    
   136   68  146 1    
   137   69   70 am   BACKBONE|DICT|INTERRES
   138   69  147 1    
   139   70   71 2    
   140   70   72 1    
   141   72   73 1    
   142   72   74 1    
   143   72  148 1    
   144   73  149 1    
   145   73  150 1    
   146   73  151 1    
   147   74   75 am   BACKBONE|DICT|INTERRES
   148   74  152 1    
   149   75   76 2    
   150   75   77 1    
   151   77   78 1    
   152   77   79 1    
   153   77  153 1    
   154   78  154 1    
   155   78  155 1    
   156   78  156 1    
   157   79   80 am   BACKBONE|DICT|INTERRES
   158   79  157 1    
   159   80   81 2    
@<TRIPOS>SUBSTRUCTURE
     1 UNK         1 GROUP             0       ****    0 ROOT    
