@<TRIPOS>MOLECULE
3R207
157   159    1
SMALL
USER_CHARGES


@<TRIPOS>ATOM
      1 CA        -46.7670  -29.8483    3.8552 C.3       0 UNK        -0.1975 
      2 C         -47.6344  -28.6431    3.5257 C.2       0 UNK         0.4852 
      3 O         -47.1116  -27.5481    3.3179 O.2       0 UNK        -0.5216 
      4 N         -48.9597  -28.8297    3.4977 N.am      1 UNK        -0.4461 
      5 CA        -50.0099  -27.8396    3.2074 C.3       1 UNK         0.0864 
      6 C6        -51.3431  -28.5341    2.7870 C.3       14 UNK        -0.0898 
      7 S7        -51.7632  -30.0635    3.7047 S.3       14 UNK        -0.2598 
      8 C8        -52.6163  -29.4268    5.1859 C.3       14 UNK         0.0286 
      9 C9        -52.0352  -29.9828    6.4835 C.ar      14 UNK        -0.0844 
     10 C10       -50.6532  -30.0286    6.6962 C.ar      14 UNK        -0.0881 
     11 C11       -50.1284  -30.5744    7.8695 C.ar      14 UNK        -0.0643 
     12 C12       -50.9988  -31.0444    8.8583 C.ar      14 UNK        -0.0930 
     13 C13       -52.3867  -30.9656    8.6830 C.ar      14 UNK        -0.0827 
     14 C14       -52.8920  -30.4435    7.4876 C.ar      14 UNK        -0.1249 
     15 C15       -53.3704  -31.4744    9.7381 C.3       14 UNK         0.0141 
     16 S16       -52.8277  -31.2881   11.4729 S.3       14 UNK        -0.2313 
     17 C17       -52.7171  -29.4775   11.6507 C.3       14 UNK        -0.0915 
     18 CA        -54.0335  -28.7896   12.1114 C.3       13 UNK         0.0968 
     19 C         -54.3265  -28.9935   13.6301 C.2       13 UNK         0.5732 
     20 N         -54.2733  -27.9625   14.4661 N.am      13 UNK        -0.7310 
     21 O         -54.6358  -30.1033   14.0561 O.2       13 UNK        -0.5035 
     22 N         -54.0409  -27.3872   11.6738 N.am      13 UNK        -0.4233 
     23 C         -55.1217  -26.6000   11.5960 C.2       13 UNK         0.4989 
     24 O         -56.2695  -26.9666   11.8552 O.2       13 UNK        -0.4996 
     25 CA        -54.8673  -25.1501   11.1364 C.3       12 UNK         0.0216 
     26 CB        -55.9097  -24.7026   10.0969 C.3       12 UNK        -0.1964 
     27 N         -54.8053  -24.1550   12.2154 N.am      12 UNK        -0.4276 
     28 C         -54.1063  -24.2518   13.3540 C.2       12 UNK         0.5020 
     29 O         -53.5320  -25.2723   13.7372 O.2       12 UNK        -0.5489 
     30 CA        -53.9971  -22.9879   14.2107 C.3       11 UNK         0.0294 
     31 CB        -55.1341  -22.9156   15.2428 C.3       11 UNK        -0.2019 
     32 N         -52.7129  -23.0583   14.8992 N.am      11 UNK        -0.4493 
     33 C         -51.8905  -22.0376   15.1617 C.2       11 UNK         0.4932 
     34 O         -52.1596  -20.8634   14.9023 O.2       11 UNK        -0.5029 
     35 CA        -50.5376  -22.3982   15.8143 C.3       10 UNK         0.0280 
     36 CB        -49.8461  -21.1889   16.4801 C.3       10 UNK        -0.1976 
     37 N         -50.6212  -23.5374   16.7391 N.am      10 UNK        -0.4242 
     38 C         -51.3341  -23.6053   17.8758 C.2       10 UNK         0.5072 
     39 O         -52.0021  -22.6729   18.3249 O.2       10 UNK        -0.5224 
     40 CA        -51.3363  -24.9438   18.6406 C.3       9 UNK         0.0343 
     41 CB        -52.7136  -25.6190   18.5174 C.3       9 UNK        -0.2003 
     42 N         -50.3120  -25.8929   18.1975 N.am      9 UNK        -0.4272 
     43 C         -48.9978  -25.8052   18.4533 C.2       9 UNK         0.4988 
     44 O         -48.4898  -24.9102   19.1286 O.2       9 UNK        -0.5108 
     45 CA        -48.0978  -26.8982   17.8420 C.3       8 UNK         0.0248 
     46 CB        -47.7833  -27.9822   18.8860 C.3       8 UNK        -0.2001 
     47 N         -48.6942  -27.5239   16.6553 N.am      8 UNK        -0.4140 
     48 C         -48.8193  -26.9125   15.4701 C.2       8 UNK         0.5028 
     49 O         -48.3554  -25.7983   15.2210 O.2       8 UNK        -0.5428 
     50 CA        -49.7162  -27.6091   14.4373 C.3       7 UNK         0.0264 
     51 CB        -51.0661  -26.8883   14.3830 C.3       7 UNK        -0.1988 
     52 N         -49.1390  -27.5985   13.0971 N.am      7 UNK        -0.4454 
     53 C         -48.0853  -28.3318   12.7167 C.2       7 UNK         0.5027 
     54 O         -47.4944  -29.1202   13.4567 O.2       7 UNK        -0.5083 
     55 CA        -47.6269  -28.1708   11.2534 C.3       6 UNK         0.0844 
     56 C56       -48.4905  -29.0718   10.3372 C.3       14 UNK        -0.0967 
     57 S57       -47.8843  -29.1226    8.6203 S.3       14 UNK        -0.2604 
     58 C58       -48.6200  -30.6830    8.0444 C.3       14 UNK         0.0134 
     59 N         -47.6367  -26.7659   10.8310 N.am      6 UNK        -0.4116 
     60 C         -46.8874  -25.7895   11.3676 C.2       5 UNK         0.5034 
     61 O         -46.0122  -25.9792   12.2127 O.2       5 UNK        -0.5045 
     62 CA        -47.1698  -24.3543   10.8962 C.3       5 UNK         0.0224 
     63 CB        -46.3042  -24.0023    9.6752 C.3       5 UNK        -0.1978 
     64 N         -48.5877  -24.1771   10.5707 N.am      5 UNK        -0.4737 
     65 C         -49.5217  -23.8063   11.4584 C.2       4 UNK         0.5027 
     66 O         -49.2619  -23.4471   12.6044 O.2       4 UNK        -0.5211 
     67 CA        -50.9950  -23.8388   11.0131 C.3       4 UNK         0.0297 
     68 CB        -51.5152  -22.4208   10.7311 C.3       4 UNK        -0.1993 
     69 N         -51.2307  -24.6862    9.8417 N.am      4 UNK        -0.4486 
     70 C         -51.2881  -26.0234    9.8857 C.2       3 UNK         0.4961 
     71 O         -51.1991  -26.6724   10.9276 O.2       3 UNK        -0.5105 
     72 CA        -51.4834  -26.7602    8.5481 C.3       3 UNK         0.0299 
     73 CB        -52.9835  -26.9050    8.2451 C.3       3 UNK        -0.1972 
     74 N         -50.8218  -26.1382    7.3938 N.am      3 UNK        -0.4305 
     75 C         -49.5306  -25.7921    7.3096 C.2       2 UNK         0.5006 
     76 O         -48.7440  -25.8718    8.2531 O.2       2 UNK        -0.5106 
     77 CA        -49.0482  -25.2581    5.9479 C.3       2 UNK         0.0296 
     78 CB        -47.6204  -24.6848    6.0135 C.3       2 UNK        -0.2002 
     79 N         -49.0923  -26.2898    4.9100 N.am      2 UNK        -0.4032 
     80 C         -50.1905  -26.7428    4.2934 C.2       1 UNK         0.5000 
     81 O         -51.3127  -26.3004    4.5507 O.2       1 UNK        -0.5238 
     82 H82       -46.2031  -29.6646    4.7695 H         1 UNK         0.0889 
     83 H83       -46.0587  -30.0327    3.0480 H         1 UNK         0.0889 
     84 H84       -47.3605  -30.7511    3.9988 H         1 UNK         0.0889 
     85 H85       -49.3222  -29.7569    3.6744 H         1 UNK         0.3028 
     86 H86       -49.6687  -27.2816    2.3327 H         1 UNK         0.0864 
     87 H87       -51.2484  -28.8358    1.7428 H         1 UNK         0.0720 
     88 H88       -52.1956  -27.8526    2.7936 H         1 UNK         0.0720 
     89 H89       -53.6729  -29.6846    5.0997 H         1 UNK         0.0814 
     90 H90       -52.5769  -28.3415    5.2186 H         1 UNK         0.0814 
     91 H91       -49.9783  -29.6567    5.9402 H         1 UNK         0.1469 
     92 H92       -50.5921  -31.4732    9.7632 H         1 UNK         0.1381 
     93 H93       -53.9620  -30.3995    7.3361 H         1 UNK         0.1206 
     94 H94       -53.5571  -32.5320    9.5485 H         1 UNK         0.0813 
     95 H95       -54.3315  -30.9693    9.6298 H         1 UNK         0.0813 
     96 H96       -52.4008  -29.0777   10.6869 H         1 UNK         0.0638 
     97 H97       -51.8991  -29.2508   12.3357 H         1 UNK         0.0638 
     98 H98       -54.8578  -29.2719   11.5830 H         1 UNK         0.0568 
     99 H99       -54.0223  -27.0338   14.1338 H         1 UNK         0.3450 
    100 H100      -54.4837  -28.1087   15.4391 H         1 UNK         0.3450 
    101 H101      -53.1238  -26.9833   11.5186 H         1 UNK         0.2987 
    102 H102      -53.8974  -25.1243   10.6426 H         1 UNK         0.0766 
    103 H103      -55.6456  -23.7418    9.6547 H         1 UNK         0.0798 
    104 H104      -56.9036  -24.6092   10.5367 H         1 UNK         0.0798 
    105 H105      -55.9821  -25.4227    9.2804 H         1 UNK         0.0798 
    106 H106      -55.2762  -23.2817   12.0279 H         1 UNK         0.3198 
    107 H107      -54.0250  -22.1111   13.5599 H         1 UNK         0.0843 
    108 H108      -55.0397  -22.0308   15.8726 H         1 UNK         0.0831 
    109 H109      -55.1406  -23.7901   15.8952 H         1 UNK         0.0831 
    110 H110      -56.1070  -22.8645   14.7526 H         1 UNK         0.0831 
    111 H111      -52.4009  -24.0065   15.0682 H         1 UNK         0.3133 
    112 H112      -49.8911  -22.7288   15.0024 H         1 UNK         0.0566 
    113 H113      -48.8908  -21.4721   16.9219 H         1 UNK         0.0814 
    114 H114      -49.6438  -20.4049   15.7494 H         1 UNK         0.0814 
    115 H115      -50.4625  -20.7489   17.2645 H         1 UNK         0.0814 
    116 H116      -50.0895  -24.3533   16.4666 H         1 UNK         0.3091 
    117 H117      -51.1579  -24.7160   19.6937 H         1 UNK         0.0702 
    118 H118      -52.9512  -25.8692   17.4823 H         1 UNK         0.0785 
    119 H119      -53.5052  -24.9625   18.8816 H         1 UNK         0.0785 
    120 H120      -52.7619  -26.5355   19.1058 H         1 UNK         0.0785 
    121 H121      -50.6360  -26.6795   17.6556 H         1 UNK         0.2998 
    122 H122      -47.1586  -26.4251   17.5469 H         1 UNK         0.0697 
    123 H123      -47.0951  -28.7286   18.4886 H         1 UNK         0.0825 
    124 H124      -47.3116  -27.5475   19.7685 H         1 UNK         0.0825 
    125 H125      -48.6843  -28.4984   19.2200 H         1 UNK         0.0825 
    126 H126      -49.0938  -28.4437   16.7793 H         1 UNK         0.3029 
    127 H127      -49.8816  -28.6482   14.7305 H         1 UNK         0.0897 
    128 H128      -51.7140  -27.3213   13.6245 H         1 UNK         0.0792 
    129 H129      -51.5926  -26.9493   15.3357 H         1 UNK         0.0792 
    130 H130      -50.9452  -25.8317   14.1383 H         1 UNK         0.0792 
    131 H131      -49.5840  -26.9935   12.4173 H         1 UNK         0.3086 
    132 H132      -46.5931  -28.5184   11.1980 H         1 UNK         0.0583 
    133 H133      -48.5013  -30.0935   10.7226 H         1 UNK         0.1020 
    134 H134      -49.5304  -28.7408   10.3298 H         1 UNK         0.1020 
    135 H135      -48.1628  -30.9514    7.0908 H         1 UNK         0.0694 
    136 H136      -48.3677  -31.4884    8.7358 H         1 UNK         0.0694 
    137 H137      -48.2464  -26.5328   10.0539 H         1 UNK         0.2989 
    138 H138      -46.8955  -23.6777   11.7091 H         1 UNK         0.1055 
    139 H139      -45.2445  -24.0372    9.9310 H         1 UNK         0.0806 
    140 H140      -46.5174  -22.9969    9.3121 H         1 UNK         0.0806 
    141 H141      -46.4586  -24.6987    8.8512 H         1 UNK         0.0806 
    142 H142      -48.8785  -24.5134    9.6584 H         1 UNK         0.3061 
    143 H143      -51.5662  -24.2441   11.8507 H         1 UNK         0.0734 
    144 H144      -52.5778  -22.4289   10.4878 H         1 UNK         0.0832 
    145 H145      -51.3906  -21.7807   11.6060 H         1 UNK         0.0832 
    146 H146      -50.9816  -21.9509    9.9041 H         1 UNK         0.0832 
    147 H147      -51.3142  -24.2270    8.9461 H         1 UNK         0.3156 
    148 H148      -51.0573  -27.7589    8.6570 H         1 UNK         0.0589 
    149 H149      -53.4866  -25.9381    8.2066 H         1 UNK         0.0808 
    150 H150      -53.1540  -27.4006    7.2916 H         1 UNK         0.0808 
    151 H151      -53.4801  -27.5098    9.0027 H         1 UNK         0.0808 
    152 H152      -51.3623  -26.0746    6.5361 H         1 UNK         0.3098 
    153 H153      -49.7182  -24.4452    5.6601 H         1 UNK         0.0720 
    154 H154      -46.8925  -25.4457    6.2989 H         1 UNK         0.0791 
    155 H155      -47.5570  -23.8782    6.7449 H         1 UNK         0.0791 
    156 H156      -47.3137  -24.2724    5.0521 H         1 UNK         0.0791 
    157 H157      -48.2030  -26.6758    4.6053 H         1 UNK         0.3028 
@<TRIPOS>BOND
     1    1    2 1    
     2    1   82 1    
     3    1   83 1    
     4    1   84 1    
     5    2    3 2    
     6    2    4 am   BACKBONE|DICT|INTERRES
     7    4    5 1    
     8    4   85 1    
     9    5    6 1    
    10    5   80 1    
    11    5   86 1    
    12    6    7 1    
    13    6   87 1    
    14    6   88 1    
    15    7    8 1    
    16    8    9 1    
    17    8   89 1    
    18    8   90 1    
    19    9   10 ar   
    20    9   14 ar   
    21   10   11 ar   
    22   10   91 1    
    23   11   12 ar   
    24   11   58 1    
    25   12   13 ar   
    26   12   92 1    
    27   13   14 ar   
    28   13   15 1    
    29   14   93 1    
    30   15   16 1    
    31   15   94 1    
    32   15   95 1    
    33   16   17 1    
    34   17   18 1    
    35   17   96 1    
    36   17   97 1    
    37   18   19 1    
    38   18   22 1    
    39   18   98 1    
    40   19   20 am   BACKBONE|DICT|INTERRES
    41   19   21 2    
    42   20   99 1    
    43   20  100 1    
    44   22   23 am   BACKBONE|DICT|INTERRES
    45   22  101 1    
    46   23   24 2    
    47   23   25 1    
    48   25   26 1    
    49   25   27 1    
    50   25  102 1    
    51   26  103 1    
    52   26  104 1    
    53   26  105 1    
    54   27   28 am   BACKBONE|DICT|INTERRES
    55   27  106 1    
    56   28   29 2    
    57   28   30 1    
    58   30   31 1    
    59   30   32 1    
    60   30  107 1    
    61   31  108 1    
    62   31  109 1    
    63   31  110 1    
    64   32   33 am   BACKBONE|DICT|INTERRES
    65   32  111 1    
    66   33   34 2    
    67   33   35 1    
    68   35   36 1    
    69   35   37 1    
    70   35  112 1    
    71   36  113 1    
    72   36  114 1    
    73   36  115 1    
    74   37   38 am   BACKBONE|DICT|INTERRES
    75   37  116 1    
    76   38   39 2    
    77   38   40 1    
    78   40   41 1    
    79   40   42 1    
    80   40  117 1    
    81   41  118 1    
    82   41  119 1    
    83   41  120 1    
    84   42   43 am   BACKBONE|DICT|INTERRES
    85   42  121 1    
    86   43   44 2    
    87   43   45 1    
    88   45   46 1    
    89   45   47 1    
    90   45  122 1    
    91   46  123 1    
    92   46  124 1    
    93   46  125 1    
    94   47   48 am   BACKBONE|DICT|INTERRES
    95   47  126 1    
    96   48   49 2    
    97   48   50 1    
    98   50   51 1    
    99   50   52 1    
   100   50  127 1    
   101   51  128 1    
   102   51  129 1    
   103   51  130 1    
   104   52   53 am   BACKBONE|DICT|INTERRES
   105   52  131 1    
   106   53   54 2    
   107   53   55 1    
   108   55   56 1    
   109   55   59 1    
   110   55  132 1    
   111   56   57 1    
   112   56  133 1    
   113   56  134 1    
   114   57   58 1    
   115   58  135 1    
   116   58  136 1    
   117   59   60 am   BACKBONE|DICT|INTERRES
   118   59  137 1    
   119   60   61 2    
   120   60   62 1    
   121   62   63 1    
   122   62   64 1    
   123   62  138 1    
   124   63  139 1    
   125   63  140 1    
   126   63  141 1    
   127   64   65 am   BACKBONE|DICT|INTERRES
   128   64  142 1    
   129   65   66 2    
   130   65   67 1    
   131   67   68 1    
   132   67   69 1    
   133   67  143 1    
   134   68  144 1    
   135   68  145 1    
   136   68  146 1    
   137   69   70 am   BACKBONE|DICT|INTERRES
   138   69  147 1    
   139   70   71 2    
   140   70   72 1    
   141   72   73 1    
   142   72   74 1    
   143   72  148 1    
   144   73  149 1    
   145   73  150 1    
   146   73  151 1    
   147   74   75 am   BACKBONE|DICT|INTERRES
   148   74  152 1    
   149   75   76 2    
   150   75   77 1    
   151   77   78 1    
   152   77   79 1    
   153   77  153 1    
   154   78  154 1    
   155   78  155 1    
   156   78  156 1    
   157   79   80 am   BACKBONE|DICT|INTERRES
   158   79  157 1    
   159   80   81 2    
@<TRIPOS>SUBSTRUCTURE
     1 UNK         1 GROUP             0       ****    0 ROOT    
