@<TRIPOS>MOLECULE
3R207
157   159    1
SMALL
USER_CHARGES


@<TRIPOS>ATOM
      1 CA        -44.6144  -30.3032    7.9286 C.3       0 UNK        -0.1975 
      2 C         -45.4588  -29.7812    6.7751 C.2       0 UNK         0.4852 
      3 O         -44.9100  -29.3522    5.7595 O.2       0 UNK        -0.5216 
      4 N         -46.7887  -29.8210    6.9233 N.am      1 UNK        -0.4461 
      5 CA        -47.7535  -29.2894    5.9581 C.3       1 UNK         0.0864 
      6 C6        -49.1633  -29.8783    6.2188 C.3       14 UNK        -0.0898 
      7 S7        -50.3773  -29.4573    4.9217 S.3       14 UNK        -0.2598 
      8 C8        -51.9554  -29.5740    5.8275 C.3       14 UNK         0.0286 
      9 C9        -52.0865  -28.5525    6.9527 C.ar      14 UNK        -0.0844 
     10 C10       -52.0976  -27.1816    6.6738 C.ar      14 UNK        -0.0881 
     11 C11       -52.2607  -26.2460    7.7017 C.ar      14 UNK        -0.0643 
     12 C12       -52.4218  -26.6937    9.0166 C.ar      14 UNK        -0.0930 
     13 C13       -52.4015  -28.0592    9.3104 C.ar      14 UNK        -0.0827 
     14 C14       -52.2342  -28.9834    8.2750 C.ar      14 UNK        -0.1249 
     15 C15       -52.5544  -28.5368   10.7463 C.3       14 UNK         0.0141 
     16 S16       -54.3021  -28.5954   11.2384 S.3       14 UNK        -0.2313 
     17 C17       -54.1984  -29.7290   12.6608 C.3       14 UNK        -0.0915 
     18 CA        -55.5764  -29.9322   13.3463 C.3       13 UNK         0.0968 
     19 C         -55.5830  -31.1636   14.3036 C.2       13 UNK         0.5732 
     20 N         -56.1716  -31.0982   15.4924 N.am      13 UNK        -0.7310 
     21 O         -55.0533  -32.2169   13.9572 O.2       13 UNK        -0.5035 
     22 N         -56.0437  -28.6875   13.9758 N.am      13 UNK        -0.4233 
     23 C         -57.3230  -28.3243   14.1112 C.2       13 UNK         0.4989 
     24 O         -58.2695  -28.9450   13.6224 O.2       13 UNK        -0.4996 
     25 CA        -57.5745  -27.0850   14.9944 C.3       12 UNK         0.0216 
     26 CB        -59.0645  -26.6885   15.0652 C.3       12 UNK        -0.1964 
     27 N         -57.0226  -27.2504   16.3481 N.am      12 UNK        -0.4276 
     28 C         -57.2686  -28.2466   17.2140 C.2       12 UNK         0.5020 
     29 O         -58.0388  -29.1809   16.9876 O.2       12 UNK        -0.5489 
     30 CA        -56.4482  -28.2368   18.5175 C.3       11 UNK         0.0294 
     31 CB        -56.8629  -29.3553   19.4923 C.3       11 UNK        -0.2019 
     32 N         -55.0267  -28.3846   18.2017 N.am      11 UNK        -0.4493 
     33 C         -54.2208  -27.3765   17.8505 C.2       11 UNK         0.4932 
     34 O         -54.5699  -26.1941   17.8988 O.2       11 UNK        -0.5029 
     35 CA        -52.8149  -27.7424   17.3290 C.3       10 UNK         0.0280 
     36 CB        -52.7162  -29.1775   16.7604 C.3       10 UNK        -0.1976 
     37 N         -52.3377  -26.7700   16.3398 N.am      10 UNK        -0.4242 
     38 C         -52.9207  -26.4294   15.1821 C.2       10 UNK         0.5072 
     39 O         -53.9440  -26.9636   14.7501 O.2       10 UNK        -0.5224 
     40 CA        -52.2765  -25.2934   14.3641 C.3       9 UNK         0.0343 
     41 CB        -52.8660  -23.9301   14.7707 C.3       9 UNK        -0.2003 
     42 N         -50.8060  -25.2515   14.3602 N.am      9 UNK        -0.4272 
     43 C         -49.9478  -25.0384   15.3697 C.2       9 UNK         0.4988 
     44 O         -50.2834  -24.8926   16.5456 O.2       9 UNK        -0.5108 
     45 CA        -48.4557  -24.9844   15.0021 C.3       8 UNK         0.0248 
     46 CB        -47.9040  -26.3925   14.7230 C.3       8 UNK        -0.2001 
     47 N         -48.2023  -24.1097   13.8549 N.am      8 UNK        -0.4140 
     48 C         -48.2916  -22.7715   13.8918 C.2       8 UNK         0.5028 
     49 O         -48.5266  -22.1264   14.9144 O.2       8 UNK        -0.5428 
     50 CA        -48.0848  -22.0189   12.5660 C.3       7 UNK         0.0264 
     51 CB        -46.5935  -21.7209   12.3429 C.3       7 UNK        -0.1988 
     52 N         -48.6141  -22.7448   11.4101 N.am      7 UNK        -0.4454 
     53 C         -49.9179  -22.9587   11.1763 C.2       7 UNK         0.5027 
     54 O         -50.8228  -22.4913   11.8679 O.2       7 UNK        -0.5083 
     55 CA        -50.2720  -23.8778    9.9905 C.3       6 UNK         0.0844 
     56 C56       -50.3743  -23.0741    8.6709 C.3       14 UNK        -0.0967 
     57 S57       -50.5986  -24.0982    7.1738 S.3       14 UNK        -0.2604 
     58 C58       -52.2831  -24.7578    7.3802 C.3       14 UNK         0.0134 
     59 N         -49.3663  -25.0259    9.9002 N.am      6 UNK        -0.4116 
     60 C         -49.2788  -26.0065   10.8090 C.2       5 UNK         0.5034 
     61 O         -49.9632  -26.0580   11.8290 O.2       5 UNK        -0.5045 
     62 CA        -48.2336  -27.1014   10.5597 C.3       5 UNK         0.0224 
     63 CB        -48.8756  -28.3089    9.8639 C.3       5 UNK        -0.1978 
     64 N         -47.1074  -26.6078    9.7654 N.am      5 UNK        -0.4737 
     65 C         -46.1301  -25.8442   10.2710 C.2       4 UNK         0.5027 
     66 O         -46.0677  -25.5145   11.4563 O.2       4 UNK        -0.5211 
     67 CA        -45.0668  -25.3377    9.2842 C.3       4 UNK         0.0297 
     68 CB        -44.1996  -26.4958    8.7659 C.3       4 UNK        -0.1993 
     69 N         -45.6273  -24.6042    8.1471 N.am      4 UNK        -0.4486 
     70 C         -46.3630  -23.4882    8.2171 C.2       3 UNK         0.4961 
     71 O         -46.7266  -22.9723    9.2725 O.2       3 UNK        -0.5105 
     72 CA        -46.7880  -22.8390    6.8890 C.3       3 UNK         0.0299 
     73 CB        -45.6092  -22.1208    6.2029 C.3       3 UNK        -0.1972 
     74 N         -47.4805  -23.7649    5.9858 N.am      3 UNK        -0.4305 
     75 C         -46.9889  -24.8281    5.3368 C.2       2 UNK         0.5006 
     76 O         -45.7980  -25.1499    5.3233 O.2       2 UNK        -0.5106 
     77 CA        -48.0237  -25.6859    4.5901 C.3       2 UNK         0.0296 
     78 CB        -47.9753  -25.3935    3.0819 C.3       2 UNK        -0.2002 
     79 N         -47.8650  -27.1265    4.8085 N.am      2 UNK        -0.4032 
     80 C         -47.7539  -27.7455    5.9941 C.2       1 UNK         0.5000 
     81 O         -47.6923  -27.1646    7.0814 O.2       1 UNK        -0.5238 
     82 H82       -44.1187  -31.2297    7.6403 H         1 UNK         0.0889 
     83 H83       -45.2148  -30.4989    8.8169 H         1 UNK         0.0889 
     84 H84       -43.8475  -29.5762    8.1940 H         1 UNK         0.0889 
     85 H85       -47.1802  -30.1677    7.7863 H         1 UNK         0.3028 
     86 H86       -47.4327  -29.6115    4.9647 H         1 UNK         0.0864 
     87 H87       -49.5359  -29.5546    7.1906 H         1 UNK         0.0720 
     88 H88       -49.1068  -30.9669    6.2673 H         1 UNK         0.0720 
     89 H89       -52.7743  -29.4252    5.1225 H         1 UNK         0.0814 
     90 H90       -52.0658  -30.5901    6.2096 H         1 UNK         0.0814 
     91 H91       -51.9804  -26.8424    5.6536 H         1 UNK         0.1469 
     92 H92       -52.5710  -25.9865    9.8187 H         1 UNK         0.1381 
     93 H93       -52.2285  -30.0412    8.5000 H         1 UNK         0.1206 
     94 H94       -52.1075  -29.5258   10.8576 H         1 UNK         0.0813 
     95 H95       -52.0124  -27.8758   11.4245 H         1 UNK         0.0813 
     96 H96       -53.4635  -29.3499   13.3730 H         1 UNK         0.0638 
     97 H97       -53.8058  -30.6754   12.2847 H         1 UNK         0.0638 
     98 H98       -56.2843  -30.1990   12.5597 H         1 UNK         0.0568 
     99 H99       -56.7064  -30.2865   15.7725 H         1 UNK         0.3450 
    100 H100      -56.1668  -31.9177   16.0779 H         1 UNK         0.3450 
    101 H101      -55.3152  -28.0945   14.3708 H         1 UNK         0.2987 
    102 H102      -57.0309  -26.2591   14.5325 H         1 UNK         0.0766 
    103 H103      -59.4645  -26.4951   14.0691 H         1 UNK         0.0798 
    104 H104      -59.2056  -25.7814   15.6526 H         1 UNK         0.0798 
    105 H105      -59.6728  -27.4753   15.5130 H         1 UNK         0.0798 
    106 H106      -56.3138  -26.5770   16.6194 H         1 UNK         0.3198 
    107 H107      -56.6244  -27.2799   19.0142 H         1 UNK         0.0843 
    108 H108      -57.9183  -29.2709   19.7550 H         1 UNK         0.0831 
    109 H109      -56.2942  -29.3027   20.4208 H         1 UNK         0.0831 
    110 H110      -56.7126  -30.3466   19.0625 H         1 UNK         0.0831 
    111 H111      -54.6814  -29.3294   18.1104 H         1 UNK         0.3133 
    112 H112      -52.1380  -27.6682   18.1810 H         1 UNK         0.0566 
    113 H113      -51.7327  -29.3605   16.3273 H         1 UNK         0.0814 
    114 H114      -52.8600  -29.9278   17.5384 H         1 UNK         0.0814 
    115 H115      -53.4568  -29.3600   15.9808 H         1 UNK         0.0814 
    116 H116      -51.5438  -26.1982   16.6217 H         1 UNK         0.3091 
    117 H117      -52.5566  -25.4726   13.3246 H         1 UNK         0.0702 
    118 H118      -52.6277  -23.6757   15.8039 H         1 UNK         0.0785 
    119 H119      -53.9530  -23.9337   14.6800 H         1 UNK         0.0785 
    120 H120      -52.4887  -23.1310   14.1322 H         1 UNK         0.0785 
    121 H121      -50.4005  -25.4387   13.4435 H         1 UNK         0.2998 
    122 H122      -47.9152  -24.5784   15.8601 H         1 UNK         0.0697 
    123 H123      -48.4182  -26.8777   13.8937 H         1 UNK         0.0825 
    124 H124      -48.0221  -27.0348   15.5966 H         1 UNK         0.0825 
    125 H125      -46.8405  -26.3620   14.4843 H         1 UNK         0.0825 
    126 H126      -47.9778  -24.5536   12.9752 H         1 UNK         0.3029 
    127 H127      -48.6167  -21.0678   12.6400 H         1 UNK         0.0897 
    128 H128      -46.4413  -21.1090   11.4536 H         1 UNK         0.0792 
    129 H129      -46.1716  -21.1756   13.1883 H         1 UNK         0.0792 
    130 H130      -46.0136  -22.6370   12.2198 H         1 UNK         0.0792 
    131 H131      -47.9297  -23.0862   10.7382 H         1 UNK         0.3086 
    132 H132      -51.2640  -24.2729   10.2060 H         1 UNK         0.0583 
    133 H133      -51.1965  -22.3580    8.7283 H         1 UNK         0.1020 
    134 H134      -49.4742  -22.4758    8.5219 H         1 UNK         0.1020 
    135 H135      -52.8183  -24.2033    8.1523 H         1 UNK         0.0694 
    136 H136      -52.8371  -24.5958    6.4544 H         1 UNK         0.0694 
    137 H137      -48.7813  -25.0795    9.0797 H         1 UNK         0.2989 
    138 H138      -47.8563  -27.4322   11.5297 H         1 UNK         0.1055 
    139 H139      -49.6176  -28.7776   10.5104 H         1 UNK         0.0806 
    140 H140      -48.1355  -29.0687    9.6161 H         1 UNK         0.0806 
    141 H141      -49.3852  -28.0151    8.9458 H         1 UNK         0.0806 
    142 H142      -47.1351  -26.8023    8.7636 H         1 UNK         0.3061 
    143 H143      -44.4197  -24.6478    9.8298 H         1 UNK         0.0734 
    144 H144      -43.7999  -27.0883    9.5901 H         1 UNK         0.0832 
    145 H145      -44.7708  -27.1665    8.1238 H         1 UNK         0.0832 
    146 H146      -43.3506  -26.1275    8.1901 H         1 UNK         0.0832 
    147 H147      -45.4398  -24.9712    7.2174 H         1 UNK         0.3156 
    148 H148      -47.5238  -22.0724    7.1359 H         1 UNK         0.0589 
    149 H149      -44.7996  -22.8039    5.9456 H         1 UNK         0.0808 
    150 H150      -45.9286  -21.6209    5.2885 H         1 UNK         0.0808 
    151 H151      -45.1883  -21.3579    6.8591 H         1 UNK         0.0808 
    152 H152      -48.4841  -23.6352    5.9512 H         1 UNK         0.3098 
    153 H153      -49.0197  -25.4284    4.9545 H         1 UNK         0.0720 
    154 H154      -48.7606  -25.9275    2.5465 H         1 UNK         0.0791 
    155 H155      -47.0161  -25.6799    2.6481 H         1 UNK         0.0791 
    156 H156      -48.1173  -24.3299    2.8847 H         1 UNK         0.0791 
    157 H157      -47.9007  -27.7010    3.9796 H         1 UNK         0.3028 
@<TRIPOS>BOND
     1    1    2 1    
     2    1   82 1    
     3    1   83 1    
     4    1   84 1    
     5    2    3 2    
     6    2    4 am   BACKBONE|DICT|INTERRES
     7    4    5 1    
     8    4   85 1    
     9    5    6 1    
    10    5   80 1    
    11    5   86 1    
    12    6    7 1    
    13    6   87 1    
    14    6   88 1    
    15    7    8 1    
    16    8    9 1    
    17    8   89 1    
    18    8   90 1    
    19    9   10 ar   
    20    9   14 ar   
    21   10   11 ar   
    22   10   91 1    
    23   11   12 ar   
    24   11   58 1    
    25   12   13 ar   
    26   12   92 1    
    27   13   14 ar   
    28   13   15 1    
    29   14   93 1    
    30   15   16 1    
    31   15   94 1    
    32   15   95 1    
    33   16   17 1    
    34   17   18 1    
    35   17   96 1    
    36   17   97 1    
    37   18   19 1    
    38   18   22 1    
    39   18   98 1    
    40   19   20 am   BACKBONE|DICT|INTERRES
    41   19   21 2    
    42   20   99 1    
    43   20  100 1    
    44   22   23 am   BACKBONE|DICT|INTERRES
    45   22  101 1    
    46   23   24 2    
    47   23   25 1    
    48   25   26 1    
    49   25   27 1    
    50   25  102 1    
    51   26  103 1    
    52   26  104 1    
    53   26  105 1    
    54   27   28 am   BACKBONE|DICT|INTERRES
    55   27  106 1    
    56   28   29 2    
    57   28   30 1    
    58   30   31 1    
    59   30   32 1    
    60   30  107 1    
    61   31  108 1    
    62   31  109 1    
    63   31  110 1    
    64   32   33 am   BACKBONE|DICT|INTERRES
    65   32  111 1    
    66   33   34 2    
    67   33   35 1    
    68   35   36 1    
    69   35   37 1    
    70   35  112 1    
    71   36  113 1    
    72   36  114 1    
    73   36  115 1    
    74   37   38 am   BACKBONE|DICT|INTERRES
    75   37  116 1    
    76   38   39 2    
    77   38   40 1    
    78   40   41 1    
    79   40   42 1    
    80   40  117 1    
    81   41  118 1    
    82   41  119 1    
    83   41  120 1    
    84   42   43 am   BACKBONE|DICT|INTERRES
    85   42  121 1    
    86   43   44 2    
    87   43   45 1    
    88   45   46 1    
    89   45   47 1    
    90   45  122 1    
    91   46  123 1    
    92   46  124 1    
    93   46  125 1    
    94   47   48 am   BACKBONE|DICT|INTERRES
    95   47  126 1    
    96   48   49 2    
    97   48   50 1    
    98   50   51 1    
    99   50   52 1    
   100   50  127 1    
   101   51  128 1    
   102   51  129 1    
   103   51  130 1    
   104   52   53 am   BACKBONE|DICT|INTERRES
   105   52  131 1    
   106   53   54 2    
   107   53   55 1    
   108   55   56 1    
   109   55   59 1    
   110   55  132 1    
   111   56   57 1    
   112   56  133 1    
   113   56  134 1    
   114   57   58 1    
   115   58  135 1    
   116   58  136 1    
   117   59   60 am   BACKBONE|DICT|INTERRES
   118   59  137 1    
   119   60   61 2    
   120   60   62 1    
   121   62   63 1    
   122   62   64 1    
   123   62  138 1    
   124   63  139 1    
   125   63  140 1    
   126   63  141 1    
   127   64   65 am   BACKBONE|DICT|INTERRES
   128   64  142 1    
   129   65   66 2    
   130   65   67 1    
   131   67   68 1    
   132   67   69 1    
   133   67  143 1    
   134   68  144 1    
   135   68  145 1    
   136   68  146 1    
   137   69   70 am   BACKBONE|DICT|INTERRES
   138   69  147 1    
   139   70   71 2    
   140   70   72 1    
   141   72   73 1    
   142   72   74 1    
   143   72  148 1    
   144   73  149 1    
   145   73  150 1    
   146   73  151 1    
   147   74   75 am   BACKBONE|DICT|INTERRES
   148   74  152 1    
   149   75   76 2    
   150   75   77 1    
   151   77   78 1    
   152   77   79 1    
   153   77  153 1    
   154   78  154 1    
   155   78  155 1    
   156   78  156 1    
   157   79   80 am   BACKBONE|DICT|INTERRES
   158   79  157 1    
   159   80   81 2    
@<TRIPOS>SUBSTRUCTURE
     1 UNK         1 GROUP             0       ****    0 ROOT    
