@<TRIPOS>MOLECULE
3R207
157   159    1
SMALL
USER_CHARGES


@<TRIPOS>ATOM
      1 CA        -49.4563  -29.1302    9.3019 C.3       0 UNK        -0.1975 
      2 C         -49.1426  -28.6153    7.9076 C.2       0 UNK         0.4852 
      3 O         -48.3425  -27.6899    7.7543 O.2       0 UNK        -0.5216 
      4 N         -49.7680  -29.2161    6.8852 N.am      1 UNK        -0.4461 
      5 CA        -49.6741  -28.8440    5.4627 C.3       1 UNK         0.0864 
      6 C6        -50.2536  -27.4315    5.1513 C.3       14 UNK        -0.0898 
      7 S7        -51.8935  -27.1057    5.8924 S.3       14 UNK        -0.2598 
      8 C8        -51.4220  -25.8601    7.1328 C.3       14 UNK         0.0286 
      9 C9        -52.5925  -25.4070    7.9880 C.ar      14 UNK        -0.0844 
     10 C10       -53.1458  -24.1400    7.7971 C.ar      14 UNK        -0.0881 
     11 C11       -54.1375  -23.6615    8.6572 C.ar      14 UNK        -0.0643 
     12 C12       -54.6247  -24.4914    9.6726 C.ar      14 UNK        -0.0930 
     13 C13       -54.0971  -25.7743    9.8631 C.ar      14 UNK        -0.0827 
     14 C14       -53.0675  -26.2175    9.0231 C.ar      14 UNK        -0.1249 
     15 C15       -54.6088  -26.6253   11.0243 C.3       14 UNK         0.0141 
     16 S16       -54.8196  -28.3946   10.6320 S.3       14 UNK        -0.2313 
     17 C17       -53.1985  -29.0897   11.1092 C.3       14 UNK        -0.0915 
     18 CA        -53.3185  -30.2192   12.1697 C.3       13 UNK         0.0968 
     19 C         -51.9709  -30.9672   12.3929 C.2       13 UNK         0.5732 
     20 N         -51.5991  -31.3382   13.6130 N.am      13 UNK        -0.7310 
     21 O         -51.2501  -31.2407   11.4369 O.2       13 UNK        -0.5035 
     22 N         -53.9113  -29.7364   13.4281 N.am      13 UNK        -0.4233 
     23 C         -54.9511  -30.3054   14.0509 C.2       13 UNK         0.4989 
     24 O         -55.5964  -31.2467   13.5844 O.2       13 UNK        -0.4996 
     25 CA        -55.3291  -29.7361   15.4359 C.3       12 UNK         0.0216 
     26 CB        -56.2491  -30.6800   16.2392 C.3       12 UNK        -0.1964 
     27 N         -54.1758  -29.3386   16.2548 N.am      12 UNK        -0.4276 
     28 C         -53.1211  -30.0937   16.6071 C.2       12 UNK         0.5020 
     29 O         -52.9837  -31.2683   16.2626 O.2       12 UNK        -0.5489 
     30 CA        -52.0098  -29.4299   17.4451 C.3       11 UNK         0.0294 
     31 CB        -50.6154  -29.7746   16.8896 C.3       11 UNK        -0.2019 
     32 N         -52.1502  -27.9742   17.4653 N.am      11 UNK        -0.4493 
     33 C         -52.5693  -27.2385   18.5040 C.2       11 UNK         0.4932 
     34 O         -52.8128  -27.7007   19.6184 O.2       11 UNK        -0.5029 
     35 CA        -52.7795  -25.7307   18.2535 C.3       10 UNK         0.0280 
     36 CB        -51.5700  -24.9301   18.7611 C.3       10 UNK        -0.1976 
     37 N         -53.0183  -25.4002   16.8441 N.am      10 UNK        -0.4242 
     38 C         -54.0820  -25.8068   16.1326 C.2       10 UNK         0.5072 
     39 O         -55.0221  -26.4384   16.6145 O.2       10 UNK        -0.5224 
     40 CA        -54.0523  -25.5601   14.6139 C.3       9 UNK         0.0343 
     41 CB        -54.8149  -24.2773   14.2540 C.3       9 UNK        -0.2003 
     42 N         -52.6896  -25.5081   14.0694 N.am      9 UNK        -0.4272 
     43 C         -51.8376  -26.5476   14.0834 C.2       9 UNK         0.4988 
     44 O         -52.1689  -27.6701   14.4653 O.2       9 UNK        -0.5108 
     45 CA        -50.3781  -26.3262   13.6444 C.3       8 UNK         0.0248 
     46 CB        -50.0731  -27.1229   12.3699 C.3       8 UNK        -0.2001 
     47 N         -50.0159  -24.9242   13.4327 N.am      8 UNK        -0.4140 
     48 C         -49.9172  -23.9992   14.4010 C.2       8 UNK         0.5028 
     49 O         -50.0778  -24.2472   15.5966 O.2       8 UNK        -0.5428 
     50 CA        -49.6696  -22.5421   13.9591 C.3       7 UNK         0.0264 
     51 CB        -48.1682  -22.2176   13.9948 C.3       7 UNK        -0.1988 
     52 N         -50.1965  -22.2476   12.6219 N.am      7 UNK        -0.4454 
     53 C         -51.4829  -22.3781   12.2622 C.2       7 UNK         0.5027 
     54 O         -52.3818  -22.6118   13.0693 O.2       7 UNK        -0.5083 
     55 CA        -51.8294  -22.3271   10.7594 C.3       6 UNK         0.0844 
     56 C56       -52.7943  -21.1540   10.4417 C.3       14 UNK        -0.0967 
     57 S57       -53.2609  -21.0210    8.6782 S.3       14 UNK        -0.2604 
     58 C58       -54.6281  -22.2255    8.5260 C.3       14 UNK         0.0134 
     59 N         -50.6670  -22.3931    9.8612 N.am      6 UNK        -0.4116 
     60 C         -49.8562  -23.4549    9.7370 C.2       5 UNK         0.5034 
     61 O         -49.9490  -24.4594   10.4464 O.2       5 UNK        -0.5045 
     62 CA        -48.7867  -23.3837    8.6282 C.3       5 UNK         0.0224 
     63 CB        -48.1014  -22.0012    8.5382 C.3       5 UNK        -0.1978 
     64 N         -47.7866  -24.4561    8.7275 N.am      5 UNK        -0.4737 
     65 C         -46.8793  -24.6487    9.6990 C.2       4 UNK         0.5027 
     66 O         -46.7386  -23.9095   10.6741 O.2       4 UNK        -0.5211 
     67 CA        -45.9538  -25.8704    9.5480 C.3       4 UNK         0.0297 
     68 CB        -46.4570  -27.0353   10.4133 C.3       4 UNK        -0.1993 
     69 N         -45.8320  -26.2991    8.1470 N.am      4 UNK        -0.4486 
     70 C         -44.9598  -25.7519    7.2864 C.2       3 UNK         0.4961 
     71 O         -44.1222  -24.9138    7.6267 O.2       3 UNK        -0.5105 
     72 CA        -45.0442  -26.1539    5.7972 C.3       3 UNK         0.0299 
     73 CB        -43.6895  -26.0075    5.0704 C.3       3 UNK        -0.1972 
     74 N         -45.6257  -27.4726    5.5234 N.am      3 UNK        -0.4305 
     75 C         -45.1785  -28.6771    5.9058 C.2       2 UNK         0.5006 
     76 O         -44.2110  -28.8439    6.6503 O.2       2 UNK        -0.5106 
     77 CA        -45.9471  -29.8992    5.3481 C.3       2 UNK         0.0296 
     78 CB        -45.4507  -31.2320    5.9403 C.3       2 UNK        -0.2002 
     79 N         -47.3933  -29.7964    5.5656 N.am      2 UNK        -0.4032 
     80 C         -48.2393  -28.9978    4.8965 C.2       1 UNK         0.5000 
     81 O         -47.8955  -28.3468    3.9070 O.2       1 UNK        -0.5238 
     82 H82       -48.5412  -29.4137    9.8203 H         1 UNK         0.0889 
     83 H83       -50.1121  -30.0000    9.2767 H         1 UNK         0.0889 
     84 H84       -49.9538  -28.3508    9.8742 H         1 UNK         0.0889 
     85 H85       -50.4118  -29.9699    7.0831 H         1 UNK         0.3028 
     86 H86       -50.2818  -29.5725    4.9240 H         1 UNK         0.0864 
     87 H87       -50.3570  -27.3022    4.0724 H         1 UNK         0.0720 
     88 H88       -49.5550  -26.6569    5.4734 H         1 UNK         0.0720 
     89 H89       -50.6465  -26.2544    7.7880 H         1 UNK         0.0814 
     90 H90       -50.9776  -25.0077    6.6175 H         1 UNK         0.0814 
     91 H91       -52.7640  -23.4966    7.0162 H         1 UNK         0.1469 
     92 H92       -55.3906  -24.1220   10.3408 H         1 UNK         0.1381 
     93 H93       -52.6199  -27.1884    9.1761 H         1 UNK         0.1206 
     94 H94       -55.5747  -26.2491   11.3644 H         1 UNK         0.0813 
     95 H95       -53.9277  -26.5132   11.8640 H         1 UNK         0.0813 
     96 H96       -52.7371  -29.4675   10.1953 H         1 UNK         0.0638 
     97 H97       -52.5441  -28.2994   11.4738 H         1 UNK         0.0638 
     98 H98       -53.9694  -30.9787   11.7342 H         1 UNK         0.0568 
     99 H99       -52.1983  -31.1932   14.4178 H         1 UNK         0.3450 
    100 H100      -50.7270  -31.8288   13.7238 H         1 UNK         0.3450 
    101 H101      -53.3921  -28.9981   13.8964 H         1 UNK         0.2987 
    102 H102      -55.8893  -28.8211   15.2378 H         1 UNK         0.0766 
    103 H103      -56.5308  -30.2394   17.1956 H         1 UNK         0.0798 
    104 H104      -57.1722  -30.8868   15.6964 H         1 UNK         0.0798 
    105 H105      -55.7667  -31.6373   16.4400 H         1 UNK         0.0798 
    106 H106      -54.1999  -28.3784   16.5794 H         1 UNK         0.3198 
    107 H107      -52.0866  -29.8350   18.4561 H         1 UNK         0.0843 
    108 H108      -50.4365  -30.8503   16.9134 H         1 UNK         0.0831 
    109 H109      -49.8271  -29.3054   17.4783 H         1 UNK         0.0831 
    110 H110      -50.5013  -29.4480   15.8550 H         1 UNK         0.0831 
    111 H111      -52.0024  -27.5187   16.5724 H         1 UNK         0.3133 
    112 H112      -53.6589  -25.4222   18.8226 H         1 UNK         0.0566 
    113 H113      -50.6592  -25.1877   18.2185 H         1 UNK         0.0814 
    114 H114      -51.3866  -25.1267   19.8184 H         1 UNK         0.0814 
    115 H115      -51.7303  -23.8570   18.6552 H         1 UNK         0.0814 
    116 H116      -52.2781  -24.9014   16.3659 H         1 UNK         0.3091 
    117 H117      -54.5670  -26.4010   14.1448 H         1 UNK         0.0702 
    118 H118      -55.8513  -24.3330   14.5897 H         1 UNK         0.0785 
    119 H119      -54.8312  -24.1129   13.1764 H         1 UNK         0.0785 
    120 H120      -54.3684  -23.3984   14.7207 H         1 UNK         0.0785 
    121 H121      -52.3706  -24.6042   13.7376 H         1 UNK         0.2998 
    122 H122      -49.7453  -26.7156   14.4446 H         1 UNK         0.0697 
    123 H123      -50.6863  -26.7847   11.5339 H         1 UNK         0.0825 
    124 H124      -50.2641  -28.1873   12.5146 H         1 UNK         0.0825 
    125 H125      -49.0279  -27.0190   12.0813 H         1 UNK         0.0825 
    126 H126      -49.8899  -24.6387   12.4654 H         1 UNK         0.3029 
    127 H127      -50.1832  -21.8926   14.6712 H         1 UNK         0.0897 
    128 H128      -47.9825  -21.1677   13.7674 H         1 UNK         0.0792 
    129 H129      -47.7506  -22.4123   14.9837 H         1 UNK         0.0792 
    130 H130      -47.6075  -22.8213   13.2791 H         1 UNK         0.0792 
    131 H131      -49.5169  -22.0686   11.8969 H         1 UNK         0.3086 
    132 H132      -52.3782  -23.2522   10.5929 H         1 UNK         0.0583 
    133 H133      -53.7070  -21.2408   11.0350 H         1 UNK         0.1020 
    134 H134      -52.3389  -20.2057   10.7334 H         1 UNK         0.1020 
    135 H135      -55.3931  -21.9990    9.2702 H         1 UNK         0.0694 
    136 H136      -55.0994  -22.1026    7.5500 H         1 UNK         0.0694 
    137 H137      -50.5469  -21.6062    9.2405 H         1 UNK         0.2989 
    138 H138      -49.3139  -23.5533    7.6888 H         1 UNK         0.1055 
    139 H139      -47.2954  -22.0089    7.8041 H         1 UNK         0.0806 
    140 H140      -47.6747  -21.6941    9.4937 H         1 UNK         0.0806 
    141 H141      -48.8008  -21.2248    8.2270 H         1 UNK         0.0806 
    142 H142      -47.8487  -25.1780    8.0225 H         1 UNK         0.3061 
    143 H143      -44.9677  -25.5880    9.9231 H         1 UNK         0.0734 
    144 H144      -46.3977  -26.7812   11.4723 H         1 UNK         0.0832 
    145 H145      -47.4981  -27.2692   10.2002 H         1 UNK         0.0832 
    146 H146      -45.8649  -27.9374   10.2591 H         1 UNK         0.0832 
    147 H147      -46.5312  -26.9573    7.8111 H         1 UNK         0.3156 
    148 H148      -45.7306  -25.4367    5.3451 H         1 UNK         0.0589 
    149 H149      -42.9268  -26.6535    5.5068 H         1 UNK         0.0808 
    150 H150      -43.7763  -26.2578    4.0131 H         1 UNK         0.0808 
    151 H151      -43.3189  -24.9832    5.1265 H         1 UNK         0.0808 
    152 H152      -46.4389  -27.4741    4.9139 H         1 UNK         0.3098 
    153 H153      -45.7609  -29.9259    4.2723 H         1 UNK         0.0720 
    154 H154      -45.9746  -32.0813    5.5014 H         1 UNK         0.0791 
    155 H155      -44.3871  -31.3757    5.7446 H         1 UNK         0.0791 
    156 H156      -45.5923  -31.2710    7.0211 H         1 UNK         0.0791 
    157 H157      -47.7535  -30.2627    6.3852 H         1 UNK         0.3028 
@<TRIPOS>BOND
     1    1    2 1    
     2    1   82 1    
     3    1   83 1    
     4    1   84 1    
     5    2    3 2    
     6    2    4 am   BACKBONE|DICT|INTERRES
     7    4    5 1    
     8    4   85 1    
     9    5    6 1    
    10    5   80 1    
    11    5   86 1    
    12    6    7 1    
    13    6   87 1    
    14    6   88 1    
    15    7    8 1    
    16    8    9 1    
    17    8   89 1    
    18    8   90 1    
    19    9   10 ar   
    20    9   14 ar   
    21   10   11 ar   
    22   10   91 1    
    23   11   12 ar   
    24   11   58 1    
    25   12   13 ar   
    26   12   92 1    
    27   13   14 ar   
    28   13   15 1    
    29   14   93 1    
    30   15   16 1    
    31   15   94 1    
    32   15   95 1    
    33   16   17 1    
    34   17   18 1    
    35   17   96 1    
    36   17   97 1    
    37   18   19 1    
    38   18   22 1    
    39   18   98 1    
    40   19   20 am   BACKBONE|DICT|INTERRES
    41   19   21 2    
    42   20   99 1    
    43   20  100 1    
    44   22   23 am   BACKBONE|DICT|INTERRES
    45   22  101 1    
    46   23   24 2    
    47   23   25 1    
    48   25   26 1    
    49   25   27 1    
    50   25  102 1    
    51   26  103 1    
    52   26  104 1    
    53   26  105 1    
    54   27   28 am   BACKBONE|DICT|INTERRES
    55   27  106 1    
    56   28   29 2    
    57   28   30 1    
    58   30   31 1    
    59   30   32 1    
    60   30  107 1    
    61   31  108 1    
    62   31  109 1    
    63   31  110 1    
    64   32   33 am   BACKBONE|DICT|INTERRES
    65   32  111 1    
    66   33   34 2    
    67   33   35 1    
    68   35   36 1    
    69   35   37 1    
    70   35  112 1    
    71   36  113 1    
    72   36  114 1    
    73   36  115 1    
    74   37   38 am   BACKBONE|DICT|INTERRES
    75   37  116 1    
    76   38   39 2    
    77   38   40 1    
    78   40   41 1    
    79   40   42 1    
    80   40  117 1    
    81   41  118 1    
    82   41  119 1    
    83   41  120 1    
    84   42   43 am   BACKBONE|DICT|INTERRES
    85   42  121 1    
    86   43   44 2    
    87   43   45 1    
    88   45   46 1    
    89   45   47 1    
    90   45  122 1    
    91   46  123 1    
    92   46  124 1    
    93   46  125 1    
    94   47   48 am   BACKBONE|DICT|INTERRES
    95   47  126 1    
    96   48   49 2    
    97   48   50 1    
    98   50   51 1    
    99   50   52 1    
   100   50  127 1    
   101   51  128 1    
   102   51  129 1    
   103   51  130 1    
   104   52   53 am   BACKBONE|DICT|INTERRES
   105   52  131 1    
   106   53   54 2    
   107   53   55 1    
   108   55   56 1    
   109   55   59 1    
   110   55  132 1    
   111   56   57 1    
   112   56  133 1    
   113   56  134 1    
   114   57   58 1    
   115   58  135 1    
   116   58  136 1    
   117   59   60 am   BACKBONE|DICT|INTERRES
   118   59  137 1    
   119   60   61 2    
   120   60   62 1    
   121   62   63 1    
   122   62   64 1    
   123   62  138 1    
   124   63  139 1    
   125   63  140 1    
   126   63  141 1    
   127   64   65 am   BACKBONE|DICT|INTERRES
   128   64  142 1    
   129   65   66 2    
   130   65   67 1    
   131   67   68 1    
   132   67   69 1    
   133   67  143 1    
   134   68  144 1    
   135   68  145 1    
   136   68  146 1    
   137   69   70 am   BACKBONE|DICT|INTERRES
   138   69  147 1    
   139   70   71 2    
   140   70   72 1    
   141   72   73 1    
   142   72   74 1    
   143   72  148 1    
   144   73  149 1    
   145   73  150 1    
   146   73  151 1    
   147   74   75 am   BACKBONE|DICT|INTERRES
   148   74  152 1    
   149   75   76 2    
   150   75   77 1    
   151   77   78 1    
   152   77   79 1    
   153   77  153 1    
   154   78  154 1    
   155   78  155 1    
   156   78  156 1    
   157   79   80 am   BACKBONE|DICT|INTERRES
   158   79  157 1    
   159   80   81 2    
@<TRIPOS>SUBSTRUCTURE
     1 UNK         1 GROUP             0       ****    0 ROOT    
