@<TRIPOS>MOLECULE
3R207
157   159    1
SMALL
USER_CHARGES


@<TRIPOS>ATOM
      1 CA        -47.5450  -28.7981    0.5231 C.3       0 UNK        -0.1975 
      2 C         -48.0239  -27.9943    1.7229 C.2       0 UNK         0.4852 
      3 O         -48.5905  -26.9149    1.5486 O.2       0 UNK        -0.5216 
      4 N         -47.8000  -28.5115    2.9396 N.am      1 UNK        -0.4461 
      5 CA        -48.1843  -27.8745    4.2062 C.3       1 UNK         0.0864 
      6 C6        -48.1501  -28.8970    5.3734 C.3       14 UNK        -0.0898 
      7 S7        -49.1803  -28.4040    6.7960 S.3       14 UNK        -0.2598 
      8 C8        -50.7824  -29.0859    6.2704 C.3       14 UNK         0.0286 
      9 C9        -51.8902  -28.7649    7.2604 C.ar      14 UNK        -0.0844 
     10 C10       -52.3874  -27.4615    7.3613 C.ar      14 UNK        -0.0881 
     11 C11       -53.4456  -27.1703    8.2273 C.ar      14 UNK        -0.0643 
     12 C12       -54.0014  -28.1966    8.9983 C.ar      14 UNK        -0.0930 
     13 C13       -53.4949  -29.4970    8.9278 C.ar      14 UNK        -0.0827 
     14 C14       -52.4460  -29.7777    8.0481 C.ar      14 UNK        -0.1249 
     15 C15       -54.1020  -30.6051    9.7780 C.3       14 UNK         0.0141 
     16 S16       -53.0269  -31.0867   11.1692 S.3       14 UNK        -0.2313 
     17 C17       -53.1722  -29.6483   12.2810 C.3       14 UNK        -0.0915 
     18 CA        -54.3358  -29.7763   13.3050 C.3       13 UNK         0.0968 
     19 C         -53.9824  -30.5830   14.5901 C.2       13 UNK         0.5732 
     20 N         -54.5422  -30.2547   15.7515 N.am      13 UNK        -0.7310 
     21 O         -53.1982  -31.5270   14.5452 O.2       13 UNK        -0.5035 
     22 N         -54.9200  -28.4700   13.6274 N.am      13 UNK        -0.4233 
     23 C         -55.8840  -27.8472   12.9464 C.2       13 UNK         0.4989 
     24 O         -56.3139  -28.2478   11.8646 O.2       13 UNK        -0.4996 
     25 CA        -56.4636  -26.5445   13.5457 C.3       12 UNK         0.0216 
     26 CB        -58.0054  -26.5952   13.5827 C.3       12 UNK        -0.1964 
     27 N         -55.9409  -26.1289   14.8625 N.am      12 UNK        -0.4276 
     28 C         -56.0078  -26.8000   16.0236 C.2       12 UNK         0.5020 
     29 O         -56.3936  -27.9669   16.1133 O.2       12 UNK        -0.5489 
     30 CA        -55.5134  -26.0624   17.2773 C.3       11 UNK         0.0294 
     31 CB        -55.3072  -27.0067   18.4814 C.3       11 UNK        -0.2019 
     32 N         -54.2764  -25.3345   16.9948 N.am      11 UNK        -0.4493 
     33 C         -53.8155  -24.2901   17.6955 C.2       11 UNK         0.4932 
     34 O         -54.4468  -23.7425   18.6011 O.2       11 UNK        -0.5029 
     35 CA        -52.4044  -23.7900   17.3242 C.3       10 UNK         0.0280 
     36 CB        -51.7297  -22.9824   18.4527 C.3       10 UNK        -0.1976 
     37 N         -51.5297  -24.8716   16.8531 N.am      10 UNK        -0.4242 
     38 C         -51.1276  -25.9595   17.5306 C.2       10 UNK         0.5072 
     39 O         -51.3877  -26.1786   18.7141 O.2       10 UNK        -0.5224 
     40 CA        -50.3224  -27.0032   16.7378 C.3       9 UNK         0.0343 
     41 CB        -51.2734  -28.0501   16.1309 C.3       9 UNK        -0.2003 
     42 N         -49.5124  -26.4048   15.6736 N.am      9 UNK        -0.4272 
     43 C         -48.4045  -25.6777   15.8833 C.2       9 UNK         0.4988 
     44 O         -47.8932  -25.5101   16.9911 O.2       9 UNK        -0.5108 
     45 CA        -47.7754  -24.9988   14.6540 C.3       8 UNK         0.0248 
     46 CB        -46.9640  -26.0066   13.8249 C.3       8 UNK        -0.2001 
     47 N         -48.7710  -24.3401   13.8041 N.am      8 UNK        -0.4140 
     48 C         -49.5231  -23.2941   14.1788 C.2       8 UNK         0.5028 
     49 O         -49.4307  -22.7346   15.2711 O.2       8 UNK        -0.5428 
     50 CA        -50.5780  -22.8017   13.1779 C.3       7 UNK         0.0264 
     51 CB        -49.9660  -21.7981   12.1873 C.3       7 UNK        -0.1988 
     52 N         -51.1908  -23.9075   12.4425 N.am      7 UNK        -0.4454 
     53 C         -52.1179  -24.7311   12.9482 C.2       7 UNK         0.5027 
     54 O         -52.5757  -24.6371   14.0885 O.2       7 UNK        -0.5083 
     55 CA        -52.6099  -25.8720   12.0384 C.3       6 UNK         0.0844 
     56 C56       -53.7336  -25.3846   11.0860 C.3       14 UNK        -0.0967 
     57 S57       -53.1392  -24.7038    9.4943 S.3       14 UNK        -0.2604 
     58 C58       -54.0145  -25.7586    8.2926 C.3       14 UNK         0.0134 
     59 N         -51.5227  -26.5602   11.3367 N.am      6 UNK        -0.4116 
     60 C         -50.4944  -27.1878   11.9205 C.2       5 UNK         0.5034 
     61 O         -50.3777  -27.3276   13.1364 O.2       5 UNK        -0.5045 
     62 CA        -49.3742  -27.6974   10.9989 C.3       5 UNK         0.0224 
     63 CB        -49.6878  -29.1170   10.5085 C.3       5 UNK        -0.1978 
     64 N         -49.0743  -26.8293    9.8523 N.am      5 UNK        -0.4737 
     65 C         -48.7785  -25.5231    9.9247 C.2       4 UNK         0.5027 
     66 O         -48.8348  -24.8661   10.9654 O.2       4 UNK        -0.5211 
     67 CA        -48.3074  -24.8614    8.6178 C.3       4 UNK         0.0297 
     68 CB        -48.1433  -23.3330    8.7483 C.3       4 UNK        -0.1993 
     69 N         -47.0721  -25.4715    8.1099 N.am      4 UNK        -0.4486 
     70 C         -45.9035  -25.6209    8.7604 C.2       3 UNK         0.4961 
     71 O         -45.6859  -25.2082    9.8997 O.2       3 UNK        -0.5105 
     72 CA        -44.7730  -26.3750    8.0332 C.3       3 UNK         0.0299 
     73 CB        -44.7033  -27.8274    8.5343 C.3       3 UNK        -0.1972 
     74 N         -44.9103  -26.3835    6.5767 N.am      3 UNK        -0.4305 
     75 C         -44.7564  -25.3180    5.7770 C.2       2 UNK         0.5006 
     76 O         -44.3732  -24.2152    6.1684 O.2       2 UNK        -0.5106 
     77 CA        -45.1172  -25.5086    4.2903 C.3       2 UNK         0.0296 
     78 CB        -43.8516  -25.7665    3.4565 C.3       2 UNK        -0.2002 
     79 N         -46.0864  -26.5851    4.0447 N.am      2 UNK        -0.4032 
     80 C         -47.3390  -26.6227    4.5280 C.2       1 UNK         0.5000 
     81 O         -47.8193  -25.7325    5.2313 O.2       1 UNK        -0.5238 
     82 H82       -47.0655  -29.7305    0.8207 H         1 UNK         0.0889 
     83 H83       -46.8272  -28.2171   -0.0553 H         1 UNK         0.0889 
     84 H84       -48.3867  -29.0420   -0.1245 H         1 UNK         0.0889 
     85 H85       -47.3418  -29.4091    3.0166 H         1 UNK         0.3028 
     86 H86       -49.2138  -27.5310    4.0835 H         1 UNK         0.0864 
     87 H87       -48.5042  -29.8711    5.0316 H         1 UNK         0.0720 
     88 H88       -47.1293  -29.0670    5.7212 H         1 UNK         0.0720 
     89 H89       -50.6871  -30.1651    6.1405 H         1 UNK         0.0814 
     90 H90       -51.0493  -28.6810    5.2933 H         1 UNK         0.0814 
     91 H91       -51.9601  -26.6769    6.7514 H         1 UNK         0.1469 
     92 H92       -54.8375  -27.9910    9.6511 H         1 UNK         0.1381 
     93 H93       -52.0640  -30.7873    7.9797 H         1 UNK         0.1206 
     94 H94       -54.2766  -31.4807    9.1513 H         1 UNK         0.0813 
     95 H95       -55.0789  -30.3088   10.1641 H         1 UNK         0.0813 
     96 H96       -53.3073  -28.7669   11.6566 H         1 UNK         0.0638 
     97 H97       -52.2202  -29.5004   12.7928 H         1 UNK         0.0638 
     98 H98       -55.1294  -30.3638   12.8398 H         1 UNK         0.0568 
     99 H99       -55.2554  -29.5354   15.8207 H         1 UNK         0.3450 
    100 H100      -54.3038  -30.7939   16.5682 H         1 UNK         0.3450 
    101 H101      -54.6666  -28.0996   14.5310 H         1 UNK         0.2987 
    102 H102      -56.1832  -25.7515   12.8520 H         1 UNK         0.0766 
    103 H103      -58.4255  -25.6551   13.9401 H         1 UNK         0.0798 
    104 H104      -58.3676  -27.3927   14.2326 H         1 UNK         0.0798 
    105 H105      -58.4196  -26.7737   12.5895 H         1 UNK         0.0798 
    106 H106      -55.5697  -25.1882   14.8977 H         1 UNK         0.3198 
    107 H107      -56.2941  -25.3434   17.5349 H         1 UNK         0.0843 
    108 H108      -56.2250  -27.5446   18.7226 H         1 UNK         0.0831 
    109 H109      -55.0153  -26.4572   19.3763 H         1 UNK         0.0831 
    110 H110      -54.5341  -27.7492   18.2794 H         1 UNK         0.0831 
    111 H111      -53.6980  -25.6906   16.2458 H         1 UNK         0.3133 
    112 H112      -52.5351  -23.1183   16.4746 H         1 UNK         0.0566 
    113 H113      -50.7379  -22.6420   18.1542 H         1 UNK         0.0814 
    114 H114      -52.3140  -22.0961   18.7028 H         1 UNK         0.0814 
    115 H115      -51.6237  -23.5697   19.3652 H         1 UNK         0.0814 
    116 H116      -51.2905  -24.8184   15.8708 H         1 UNK         0.3091 
    117 H117      -49.6534  -27.5110   17.4359 H         1 UNK         0.0702 
    118 H118      -50.7205  -28.8387   15.6200 H         1 UNK         0.0785 
    119 H119      -51.9584  -27.6048   15.4083 H         1 UNK         0.0785 
    120 H120      -51.8780  -28.5272   16.9036 H         1 UNK         0.0785 
    121 H121      -49.8286  -26.5643   14.7186 H         1 UNK         0.2998 
    122 H122      -47.0909  -24.2267   15.0113 H         1 UNK         0.0697 
    123 H123      -47.5747  -26.8510   13.5087 H         1 UNK         0.0825 
    124 H124      -46.1346  -26.4086   14.4081 H         1 UNK         0.0825 
    125 H125      -46.5413  -25.5439   12.9321 H         1 UNK         0.0825 
    126 H126      -48.8705  -24.6844   12.8512 H         1 UNK         0.3029 
    127 H127      -51.3592  -22.2876   13.7429 H         1 UNK         0.0897 
    128 H128      -50.7158  -21.4176   11.4934 H         1 UNK         0.0792 
    129 H129      -49.5462  -20.9400   12.7139 H         1 UNK         0.0792 
    130 H130      -49.1619  -22.2443   11.6012 H         1 UNK         0.0792 
    131 H131      -50.8043  -24.1122   11.5292 H         1 UNK         0.3086 
    132 H132      -53.0502  -26.6075   12.7123 H         1 UNK         0.0583 
    133 H133      -54.3636  -24.6314   11.5640 H         1 UNK         0.1020 
    134 H134      -54.4098  -26.2126   10.8889 H         1 UNK         0.1020 
    135 H135      -55.0779  -25.7860    8.5362 H         1 UNK         0.0694 
    136 H136      -53.9458  -25.2926    7.3084 H         1 UNK         0.0694 
    137 H137      -51.5311  -26.4835   10.3292 H         1 UNK         0.2989 
    138 H138      -48.4639  -27.7477   11.5972 H         1 UNK         0.1055 
    139 H139      -49.8594  -29.7929   11.3475 H         1 UNK         0.0806 
    140 H140      -48.8679  -29.5299    9.9207 H         1 UNK         0.0806 
    141 H141      -50.5851  -29.1339    9.8928 H         1 UNK         0.0806 
    142 H142      -49.0078  -27.2850    8.9506 H         1 UNK         0.3061 
    143 H143      -49.0804  -25.0501    7.8709 H         1 UNK         0.0734 
    144 H144      -49.0819  -22.8659    9.0488 H         1 UNK         0.0832 
    145 H145      -47.3940  -23.0672    9.4948 H         1 UNK         0.0832 
    146 H146      -47.8459  -22.8851    7.8002 H         1 UNK         0.0832 
    147 H147      -47.1368  -25.8112    7.1557 H         1 UNK         0.3156 
    148 H148      -43.8320  -25.8799    8.2824 H         1 UNK         0.0589 
    149 H149      -45.6173  -28.3782    8.3067 H         1 UNK         0.0808 
    150 H150      -43.8655  -28.3635    8.0880 H         1 UNK         0.0808 
    151 H151      -44.5662  -27.8600    9.6162 H         1 UNK         0.0808 
    152 H152      -45.1970  -27.2541    6.1554 H         1 UNK         0.3098 
    153 H153      -45.5698  -24.5760    3.9467 H         1 UNK         0.0720 
    154 H154      -44.0794  -25.8106    2.3912 H         1 UNK         0.0791 
    155 H155      -43.3659  -26.7020    3.7368 H         1 UNK         0.0791 
    156 H156      -43.1227  -24.9666    3.5961 H         1 UNK         0.0791 
    157 H157      -45.7767  -27.3526    3.4663 H         1 UNK         0.3028 
@<TRIPOS>BOND
     1    1    2 1    
     2    1   82 1    
     3    1   83 1    
     4    1   84 1    
     5    2    3 2    
     6    2    4 am   BACKBONE|DICT|INTERRES
     7    4    5 1    
     8    4   85 1    
     9    5    6 1    
    10    5   80 1    
    11    5   86 1    
    12    6    7 1    
    13    6   87 1    
    14    6   88 1    
    15    7    8 1    
    16    8    9 1    
    17    8   89 1    
    18    8   90 1    
    19    9   10 ar   
    20    9   14 ar   
    21   10   11 ar   
    22   10   91 1    
    23   11   12 ar   
    24   11   58 1    
    25   12   13 ar   
    26   12   92 1    
    27   13   14 ar   
    28   13   15 1    
    29   14   93 1    
    30   15   16 1    
    31   15   94 1    
    32   15   95 1    
    33   16   17 1    
    34   17   18 1    
    35   17   96 1    
    36   17   97 1    
    37   18   19 1    
    38   18   22 1    
    39   18   98 1    
    40   19   20 am   BACKBONE|DICT|INTERRES
    41   19   21 2    
    42   20   99 1    
    43   20  100 1    
    44   22   23 am   BACKBONE|DICT|INTERRES
    45   22  101 1    
    46   23   24 2    
    47   23   25 1    
    48   25   26 1    
    49   25   27 1    
    50   25  102 1    
    51   26  103 1    
    52   26  104 1    
    53   26  105 1    
    54   27   28 am   BACKBONE|DICT|INTERRES
    55   27  106 1    
    56   28   29 2    
    57   28   30 1    
    58   30   31 1    
    59   30   32 1    
    60   30  107 1    
    61   31  108 1    
    62   31  109 1    
    63   31  110 1    
    64   32   33 am   BACKBONE|DICT|INTERRES
    65   32  111 1    
    66   33   34 2    
    67   33   35 1    
    68   35   36 1    
    69   35   37 1    
    70   35  112 1    
    71   36  113 1    
    72   36  114 1    
    73   36  115 1    
    74   37   38 am   BACKBONE|DICT|INTERRES
    75   37  116 1    
    76   38   39 2    
    77   38   40 1    
    78   40   41 1    
    79   40   42 1    
    80   40  117 1    
    81   41  118 1    
    82   41  119 1    
    83   41  120 1    
    84   42   43 am   BACKBONE|DICT|INTERRES
    85   42  121 1    
    86   43   44 2    
    87   43   45 1    
    88   45   46 1    
    89   45   47 1    
    90   45  122 1    
    91   46  123 1    
    92   46  124 1    
    93   46  125 1    
    94   47   48 am   BACKBONE|DICT|INTERRES
    95   47  126 1    
    96   48   49 2    
    97   48   50 1    
    98   50   51 1    
    99   50   52 1    
   100   50  127 1    
   101   51  128 1    
   102   51  129 1    
   103   51  130 1    
   104   52   53 am   BACKBONE|DICT|INTERRES
   105   52  131 1    
   106   53   54 2    
   107   53   55 1    
   108   55   56 1    
   109   55   59 1    
   110   55  132 1    
   111   56   57 1    
   112   56  133 1    
   113   56  134 1    
   114   57   58 1    
   115   58  135 1    
   116   58  136 1    
   117   59   60 am   BACKBONE|DICT|INTERRES
   118   59  137 1    
   119   60   61 2    
   120   60   62 1    
   121   62   63 1    
   122   62   64 1    
   123   62  138 1    
   124   63  139 1    
   125   63  140 1    
   126   63  141 1    
   127   64   65 am   BACKBONE|DICT|INTERRES
   128   64  142 1    
   129   65   66 2    
   130   65   67 1    
   131   67   68 1    
   132   67   69 1    
   133   67  143 1    
   134   68  144 1    
   135   68  145 1    
   136   68  146 1    
   137   69   70 am   BACKBONE|DICT|INTERRES
   138   69  147 1    
   139   70   71 2    
   140   70   72 1    
   141   72   73 1    
   142   72   74 1    
   143   72  148 1    
   144   73  149 1    
   145   73  150 1    
   146   73  151 1    
   147   74   75 am   BACKBONE|DICT|INTERRES
   148   74  152 1    
   149   75   76 2    
   150   75   77 1    
   151   77   78 1    
   152   77   79 1    
   153   77  153 1    
   154   78  154 1    
   155   78  155 1    
   156   78  156 1    
   157   79   80 am   BACKBONE|DICT|INTERRES
   158   79  157 1    
   159   80   81 2    
@<TRIPOS>SUBSTRUCTURE
     1 UNK         1 GROUP             0       ****    0 ROOT    
