@<TRIPOS>MOLECULE
3R207
157   159    1
SMALL
USER_CHARGES


@<TRIPOS>ATOM
      1 CA        -49.0976  -31.4488    4.4305 C.3       0 UNK        -0.1975 
      2 C         -48.5183  -30.0755    4.1253 C.2       0 UNK         0.4852 
      3 O         -48.0572  -29.8403    3.0079 O.2       0 UNK        -0.5216 
      4 N         -48.5351  -29.1685    5.1118 N.am      1 UNK        -0.4461 
      5 CA        -48.0471  -27.7865    4.9902 C.3       1 UNK         0.0864 
      6 C6        -48.5722  -26.8808    6.1335 C.3       14 UNK        -0.0898 
      7 S7        -50.3939  -26.8273    6.2276 S.3       14 UNK        -0.2598 
      8 C8        -50.6703  -27.4504    7.9191 C.3       14 UNK         0.0286 
      9 C9        -52.1250  -27.3544    8.3699 C.ar      14 UNK        -0.0844 
     10 C10       -52.8703  -26.1855    8.1720 C.ar      14 UNK        -0.0881 
     11 C11       -54.1866  -26.0853    8.6390 C.ar      14 UNK        -0.0643 
     12 C12       -54.7621  -27.1819    9.2847 C.ar      14 UNK        -0.0930 
     13 C13       -54.0314  -28.3558    9.4968 C.ar      14 UNK        -0.0827 
     14 C14       -52.7143  -28.4333    9.0354 C.ar      14 UNK        -0.1249 
     15 C15       -54.6616  -29.5509   10.2029 C.3       14 UNK         0.0141 
     16 S16       -55.5302  -29.0787   11.7316 S.3       14 UNK        -0.2313 
     17 C17       -56.0369  -30.7128   12.3700 C.3       14 UNK        -0.0915 
     18 CA        -55.4467  -31.0337   13.7685 C.3       13 UNK         0.0968 
     19 C         -53.9526  -31.4674   13.7083 C.2       13 UNK         0.5732 
     20 N         -53.0232  -30.7790   14.3613 N.am      13 UNK        -0.7310 
     21 O         -53.6335  -32.4667   13.0685 O.2       13 UNK        -0.5035 
     22 N         -55.7371  -29.9507   14.7150 N.am      13 UNK        -0.4233 
     23 C         -55.8547  -30.0761   16.0398 C.2       13 UNK         0.4989 
     24 O         -55.7864  -31.1541   16.6325 O.2       13 UNK        -0.4996 
     25 CA        -56.0894  -28.7801   16.8342 C.3       12 UNK         0.0216 
     26 CB        -55.3167  -28.7860   18.1663 C.3       12 UNK        -0.1964 
     27 N         -55.6810  -27.5994   16.0680 N.am      12 UNK        -0.4276 
     28 C         -56.4747  -26.5864   15.6906 C.2       12 UNK         0.5020 
     29 O         -57.6964  -26.5857   15.8519 O.2       12 UNK        -0.5489 
     30 CA        -55.7893  -25.3639   15.0298 C.3       11 UNK         0.0294 
     31 CB        -56.5552  -24.0481   15.2782 C.3       11 UNK        -0.2019 
     32 N         -54.3745  -25.2135   15.3999 N.am      11 UNK        -0.4493 
     33 C         -53.8625  -25.1451   16.6401 C.2       11 UNK         0.4932 
     34 O         -54.5431  -24.9777   17.6531 O.2       11 UNK        -0.5029 
     35 CA        -52.3424  -25.3594   16.7822 C.3       10 UNK         0.0280 
     36 CB        -51.9858  -26.1357   18.0669 C.3       10 UNK        -0.1976 
     37 N         -51.7042  -25.9949   15.6207 N.am      10 UNK        -0.4242 
     38 C         -51.9688  -27.1875   15.0573 C.2       10 UNK         0.5072 
     39 O         -52.8617  -27.9455   15.4469 O.2       10 UNK        -0.5224 
     40 CA        -51.1380  -27.5901   13.8190 C.3       9 UNK         0.0343 
     41 CB        -52.0390  -27.7364   12.5821 C.3       9 UNK        -0.2003 
     42 N         -50.0632  -26.6440   13.5058 N.am      9 UNK        -0.4272 
     43 C         -48.8996  -26.5602   14.1652 C.2       9 UNK         0.4988 
     44 O         -48.5478  -27.3504   15.0410 O.2       9 UNK        -0.5108 
     45 CA        -48.0003  -25.3596   13.8252 C.3       8 UNK         0.0248 
     46 CB        -47.0135  -25.7264   12.7104 C.3       8 UNK        -0.2001 
     47 N         -48.7652  -24.1619   13.4540 N.am      8 UNK        -0.4140 
     48 C         -49.5361  -23.4775   14.3142 C.2       8 UNK         0.5028 
     49 O         -49.6252  -23.7516   15.5101 O.2       8 UNK        -0.5428 
     50 CA        -50.4021  -22.3410   13.7495 C.3       7 UNK         0.0264 
     51 CB        -49.5808  -21.0508   13.5993 C.3       7 UNK        -0.1988 
     52 N         -51.0124  -22.6894   12.4674 N.am      7 UNK        -0.4454 
     53 C         -51.9577  -23.6261   12.2848 C.2       7 UNK         0.5027 
     54 O         -52.4902  -24.2505   13.2033 O.2       7 UNK        -0.5083 
     55 CA        -52.3574  -23.9381   10.8261 C.3       6 UNK         0.0844 
     56 C56       -53.7220  -23.2868   10.4719 C.3       14 UNK        -0.0967 
     57 S57       -54.0983  -23.2656    8.6798 S.3       14 UNK        -0.2604 
     58 C58       -55.0185  -24.8212    8.4325 C.3       14 UNK         0.0134 
     59 N         -51.3042  -23.5897    9.8675 N.am      6 UNK        -0.4116 
     60 C         -50.1027  -24.1720    9.7785 C.2       5 UNK         0.5034 
     61 O         -49.7182  -25.0577   10.5459 O.2       5 UNK        -0.5045 
     62 CA        -49.1986  -23.6932    8.6243 C.3       5 UNK         0.0224 
     63 CB        -49.5220  -22.2617    8.1375 C.3       5 UNK        -0.1978 
     64 N         -47.7657  -23.7989    8.9117 N.am      5 UNK        -0.4737 
     65 C         -47.0804  -23.2718    9.9329 C.2       4 UNK         0.5027 
     66 O         -47.6025  -22.6833   10.8826 O.2       4 UNK        -0.5211 
     67 CA        -45.5436  -23.4200    9.8536 C.3       4 UNK         0.0297 
     68 CB        -44.8175  -22.6549   10.9768 C.3       4 UNK        -0.1993 
     69 N         -45.0786  -24.8140    9.8397 N.am      4 UNK        -0.4486 
     70 C         -45.2255  -25.6850    8.8314 C.2       3 UNK         0.4961 
     71 O         -45.8080  -25.4144    7.7777 O.2       3 UNK        -0.5105 
     72 CA        -44.6435  -27.0938    9.0528 C.3       3 UNK         0.0299 
     73 CB        -45.3678  -27.8190   10.1998 C.3       3 UNK        -0.1972 
     74 N         -44.7709  -27.9068    7.8435 N.am      3 UNK        -0.4305 
     75 C         -43.9161  -27.9089    6.8113 C.2       2 UNK         0.5006 
     76 O         -42.8396  -27.3099    6.8050 O.2       2 UNK        -0.5106 
     77 CA        -44.3416  -28.7178    5.5714 C.3       2 UNK         0.0296 
     78 CB        -43.8313  -30.1651    5.6666 C.3       2 UNK        -0.2002 
     79 N         -45.7970  -28.7246    5.3912 N.am      2 UNK        -0.4032 
     80 C         -46.5064  -27.6881    4.9171 C.2       1 UNK         0.5000 
     81 O         -45.9924  -26.6696    4.4508 O.2       1 UNK        -0.5238 
     82 H82       -49.4720  -31.5168    5.4518 H         1 UNK         0.0889 
     83 H83       -48.3355  -32.2161    4.2965 H         1 UNK         0.0889 
     84 H84       -49.9227  -31.6660    3.7526 H         1 UNK         0.0889 
     85 H85       -48.9551  -29.4085    5.9981 H         1 UNK         0.3028 
     86 H86       -48.4280  -27.3857    4.0480 H         1 UNK         0.0864 
     87 H87       -48.1612  -27.1990    7.0937 H         1 UNK         0.0720 
     88 H88       -48.2278  -25.8544    5.9901 H         1 UNK         0.0720 
     89 H89       -50.3252  -28.4842    7.9647 H         1 UNK         0.0814 
     90 H90       -50.0523  -26.8910    8.6203 H         1 UNK         0.0814 
     91 H91       -52.4198  -25.3456    7.6625 H         1 UNK         0.1469 
     92 H92       -55.7848  -27.1215    9.6307 H         1 UNK         0.1381 
     93 H93       -52.1435  -29.3370    9.2005 H         1 UNK         0.1206 
     94 H94       -53.9004  -30.2926   10.4512 H         1 UNK         0.0813 
     95 H95       -55.3642  -30.0343    9.5230 H         1 UNK         0.0813 
     96 H96       -57.1260  -30.7104   12.4328 H         1 UNK         0.0638 
     97 H97       -55.7910  -31.4963   11.6509 H         1 UNK         0.0638 
     98 H98       -55.9747  -31.9193   14.1270 H         1 UNK         0.0568 
     99 H99       -52.0685  -31.0949   14.3192 H         1 UNK         0.3450 
    100 H100      -53.2516  -29.9330   14.8671 H         1 UNK         0.3450 
    101 H101      -55.7977  -29.0284   14.3100 H         1 UNK         0.2987 
    102 H102      -57.1570  -28.7378   17.0577 H         1 UNK         0.0766 
    103 H103      -55.6472  -29.6008   18.8117 H         1 UNK         0.0798 
    104 H104      -55.4684  -27.8566   18.7159 H         1 UNK         0.0798 
    105 H105      -54.2446  -28.9079   18.0062 H         1 UNK         0.0798 
    106 H106      -54.6844  -27.5388   15.8649 H         1 UNK         0.3198 
    107 H107      -55.8018  -25.5575   13.9561 H         1 UNK         0.0843 
    108 H108      -56.6357  -23.8226   16.3420 H         1 UNK         0.0831 
    109 H109      -57.5691  -24.1029   14.8801 H         1 UNK         0.0831 
    110 H110      -56.0633  -23.2055   14.7923 H         1 UNK         0.0831 
    111 H111      -53.7114  -25.2538   14.6319 H         1 UNK         0.3133 
    112 H112      -51.9064  -24.3632   16.8625 H         1 UNK         0.0566 
    113 H113      -52.4374  -27.1281   18.0765 H         1 UNK         0.0814 
    114 H114      -52.3349  -25.6102   18.9565 H         1 UNK         0.0814 
    115 H115      -50.9074  -26.2573   18.1686 H         1 UNK         0.0814 
    116 H116      -50.9690  -25.4379   15.2032 H         1 UNK         0.3091 
    117 H117      -50.6919  -28.5639   14.0306 H         1 UNK         0.0702 
    118 H118      -51.4607  -27.9947   11.6950 H         1 UNK         0.0785 
    119 H119      -52.5922  -26.8228   12.3670 H         1 UNK         0.0785 
    120 H120      -52.7732  -28.5278   12.7264 H         1 UNK         0.0785 
    121 H121      -50.2447  -25.9730   12.7705 H         1 UNK         0.2998 
    122 H122      -47.4212  -25.1216   14.7202 H         1 UNK         0.0697 
    123 H123      -46.3033  -24.9207   12.5378 H         1 UNK         0.0825 
    124 H124      -47.5202  -25.9412   11.7690 H         1 UNK         0.0825 
    125 H125      -46.4386  -26.6113   12.9854 H         1 UNK         0.0825 
    126 H126      -48.7269  -23.8730   12.4823 H         1 UNK         0.3029 
    127 H127      -51.2073  -22.1528   14.4633 H         1 UNK         0.0897 
    128 H128      -49.1316  -20.7627   14.5508 H         1 UNK         0.0792 
    129 H129      -50.2048  -20.2189   13.2723 H         1 UNK         0.0792 
    130 H130      -48.7702  -21.1664   12.8785 H         1 UNK         0.0792 
    131 H131      -50.6278  -22.2391   11.6495 H         1 UNK         0.3086 
    132 H132      -52.4844  -25.0203   10.7667 H         1 UNK         0.0583 
    133 H133      -54.5296  -23.7911   11.0063 H         1 UNK         0.1020 
    134 H134      -53.7474  -22.2482   10.8085 H         1 UNK         0.1020 
    135 H135      -55.8863  -24.8172    9.0941 H         1 UNK         0.0694 
    136 H136      -55.4089  -24.8325    7.4142 H         1 UNK         0.0694 
    137 H137      -51.5560  -22.8896    9.1848 H         1 UNK         0.2989 
    138 H138      -49.3900  -24.3762    7.7962 H         1 UNK         0.1055 
    139 H139      -49.4478  -21.5320    8.9452 H         1 UNK         0.0806 
    140 H140      -50.5243  -22.1936    7.7126 H         1 UNK         0.0806 
    141 H141      -48.8327  -21.9511    7.3520 H         1 UNK         0.0806 
    142 H142      -47.2168  -24.3427    8.2477 H         1 UNK         0.3061 
    143 H143      -45.2403  -22.9629    8.9091 H         1 UNK         0.0734 
    144 H144      -45.0565  -23.0487   11.9644 H         1 UNK         0.0832 
    145 H145      -43.7355  -22.6954   10.8510 H         1 UNK         0.0832 
    146 H146      -45.1002  -21.6012   10.9739 H         1 UNK         0.0832 
    147 H147      -44.6028  -25.1284   10.6727 H         1 UNK         0.3156 
    148 H148      -43.5867  -26.9956    9.3099 H         1 UNK         0.0589 
    149 H149      -45.0440  -28.8569   10.2821 H         1 UNK         0.0808 
    150 H150      -46.4508  -27.8154   10.0663 H         1 UNK         0.0808 
    151 H151      -45.1503  -27.3474   11.1571 H         1 UNK         0.0808 
    152 H152      -45.6413  -28.4031    7.7347 H         1 UNK         0.3098 
    153 H153      -43.8830  -28.2524    4.6961 H         1 UNK         0.0720 
    154 H154      -44.2560  -30.6910    6.5227 H         1 UNK         0.0791 
    155 H155      -42.7461  -30.1882    5.7759 H         1 UNK         0.0791 
    156 H156      -44.0769  -30.7317    4.7681 H         1 UNK         0.0791 
    157 H157      -46.2986  -29.5402    5.7107 H         1 UNK         0.3028 
@<TRIPOS>BOND
     1    1    2 1    
     2    1   82 1    
     3    1   83 1    
     4    1   84 1    
     5    2    3 2    
     6    2    4 am   BACKBONE|DICT|INTERRES
     7    4    5 1    
     8    4   85 1    
     9    5    6 1    
    10    5   80 1    
    11    5   86 1    
    12    6    7 1    
    13    6   87 1    
    14    6   88 1    
    15    7    8 1    
    16    8    9 1    
    17    8   89 1    
    18    8   90 1    
    19    9   10 ar   
    20    9   14 ar   
    21   10   11 ar   
    22   10   91 1    
    23   11   12 ar   
    24   11   58 1    
    25   12   13 ar   
    26   12   92 1    
    27   13   14 ar   
    28   13   15 1    
    29   14   93 1    
    30   15   16 1    
    31   15   94 1    
    32   15   95 1    
    33   16   17 1    
    34   17   18 1    
    35   17   96 1    
    36   17   97 1    
    37   18   19 1    
    38   18   22 1    
    39   18   98 1    
    40   19   20 am   BACKBONE|DICT|INTERRES
    41   19   21 2    
    42   20   99 1    
    43   20  100 1    
    44   22   23 am   BACKBONE|DICT|INTERRES
    45   22  101 1    
    46   23   24 2    
    47   23   25 1    
    48   25   26 1    
    49   25   27 1    
    50   25  102 1    
    51   26  103 1    
    52   26  104 1    
    53   26  105 1    
    54   27   28 am   BACKBONE|DICT|INTERRES
    55   27  106 1    
    56   28   29 2    
    57   28   30 1    
    58   30   31 1    
    59   30   32 1    
    60   30  107 1    
    61   31  108 1    
    62   31  109 1    
    63   31  110 1    
    64   32   33 am   BACKBONE|DICT|INTERRES
    65   32  111 1    
    66   33   34 2    
    67   33   35 1    
    68   35   36 1    
    69   35   37 1    
    70   35  112 1    
    71   36  113 1    
    72   36  114 1    
    73   36  115 1    
    74   37   38 am   BACKBONE|DICT|INTERRES
    75   37  116 1    
    76   38   39 2    
    77   38   40 1    
    78   40   41 1    
    79   40   42 1    
    80   40  117 1    
    81   41  118 1    
    82   41  119 1    
    83   41  120 1    
    84   42   43 am   BACKBONE|DICT|INTERRES
    85   42  121 1    
    86   43   44 2    
    87   43   45 1    
    88   45   46 1    
    89   45   47 1    
    90   45  122 1    
    91   46  123 1    
    92   46  124 1    
    93   46  125 1    
    94   47   48 am   BACKBONE|DICT|INTERRES
    95   47  126 1    
    96   48   49 2    
    97   48   50 1    
    98   50   51 1    
    99   50   52 1    
   100   50  127 1    
   101   51  128 1    
   102   51  129 1    
   103   51  130 1    
   104   52   53 am   BACKBONE|DICT|INTERRES
   105   52  131 1    
   106   53   54 2    
   107   53   55 1    
   108   55   56 1    
   109   55   59 1    
   110   55  132 1    
   111   56   57 1    
   112   56  133 1    
   113   56  134 1    
   114   57   58 1    
   115   58  135 1    
   116   58  136 1    
   117   59   60 am   BACKBONE|DICT|INTERRES
   118   59  137 1    
   119   60   61 2    
   120   60   62 1    
   121   62   63 1    
   122   62   64 1    
   123   62  138 1    
   124   63  139 1    
   125   63  140 1    
   126   63  141 1    
   127   64   65 am   BACKBONE|DICT|INTERRES
   128   64  142 1    
   129   65   66 2    
   130   65   67 1    
   131   67   68 1    
   132   67   69 1    
   133   67  143 1    
   134   68  144 1    
   135   68  145 1    
   136   68  146 1    
   137   69   70 am   BACKBONE|DICT|INTERRES
   138   69  147 1    
   139   70   71 2    
   140   70   72 1    
   141   72   73 1    
   142   72   74 1    
   143   72  148 1    
   144   73  149 1    
   145   73  150 1    
   146   73  151 1    
   147   74   75 am   BACKBONE|DICT|INTERRES
   148   74  152 1    
   149   75   76 2    
   150   75   77 1    
   151   77   78 1    
   152   77   79 1    
   153   77  153 1    
   154   78  154 1    
   155   78  155 1    
   156   78  156 1    
   157   79   80 am   BACKBONE|DICT|INTERRES
   158   79  157 1    
   159   80   81 2    
@<TRIPOS>SUBSTRUCTURE
     1 UNK         1 GROUP             0       ****    0 ROOT    
