@<TRIPOS>MOLECULE
3R207
157   159    1
SMALL
USER_CHARGES


@<TRIPOS>ATOM
      1 CA        -46.3437  -31.3412    3.1031 C.3       0 UNK        -0.1975 
      2 C         -47.4384  -30.5123    3.7572 C.2       0 UNK         0.4852 
      3 O         -47.2523  -30.0250    4.8718 O.2       0 UNK        -0.5216 
      4 N         -48.5729  -30.3272    3.0649 N.am      1 UNK        -0.4461 
      5 CA        -49.7665  -29.6048    3.5378 C.3       1 UNK         0.0864 
      6 C6        -50.4614  -30.3501    4.7121 C.3       14 UNK        -0.0898 
      7 S7        -52.2758  -30.1650    4.6941 S.3       14 UNK        -0.2598 
      8 C8        -52.6841  -30.4347    6.4489 C.3       14 UNK         0.0286 
      9 C9        -52.1771  -29.3069    7.3365 C.ar      14 UNK        -0.0844 
     10 C10       -51.0972  -29.5146    8.2006 C.ar      14 UNK        -0.0881 
     11 C11       -50.6339  -28.4798    9.0179 C.ar      14 UNK        -0.0643 
     12 C12       -51.2537  -27.2283    8.9596 C.ar      14 UNK        -0.0930 
     13 C13       -52.3506  -27.0173    8.1220 C.ar      14 UNK        -0.0827 
     14 C14       -52.8033  -28.0579    7.3064 C.ar      14 UNK        -0.1249 
     15 C15       -53.0727  -25.6779    8.1305 C.3       14 UNK         0.0141 
     16 S16       -54.0380  -25.4464    9.6595 S.3       14 UNK        -0.2313 
     17 C17       -55.0697  -26.9547    9.6569 C.3       14 UNK        -0.0915 
     18 CA        -56.3626  -26.8334   10.5135 C.3       13 UNK         0.0968 
     19 C         -57.2709  -28.0962   10.3982 C.2       13 UNK         0.5732 
     20 N         -57.9414  -28.5322   11.4581 N.am      13 UNK        -0.7310 
     21 O         -57.4058  -28.6708    9.3202 O.2       13 UNK        -0.5035 
     22 N         -56.1119  -26.3743   11.8921 N.am      13 UNK        -0.4233 
     23 C         -55.3675  -26.9907   12.8197 C.2       13 UNK         0.4989 
     24 O         -54.7724  -28.0549   12.6375 O.2       13 UNK        -0.4996 
     25 CA        -55.2573  -26.2477   14.1637 C.3       12 UNK         0.0216 
     26 CB        -56.6374  -25.9335   14.7847 C.3       12 UNK        -0.1964 
     27 N         -54.3832  -26.9184   15.1321 N.am      12 UNK        -0.4276 
     28 C         -54.5954  -28.0567   15.8127 C.2       12 UNK         0.5020 
     29 O         -55.6053  -28.7558   15.7172 O.2       12 UNK        -0.5489 
     30 CA        -53.4970  -28.4597   16.8145 C.3       11 UNK         0.0294 
     31 CB        -52.4782  -29.4092   16.1632 C.3       11 UNK        -0.2019 
     32 N         -52.8014  -27.2817   17.3391 N.am      11 UNK        -0.4493 
     33 C         -53.2769  -26.4916   18.3119 C.2       11 UNK         0.4932 
     34 O         -54.2690  -26.7700   18.9873 O.2       11 UNK        -0.5029 
     35 CA        -52.5596  -25.1445   18.5342 C.3       10 UNK         0.0280 
     36 CB        -52.6573  -24.6440   19.9914 C.3       10 UNK        -0.1976 
     37 N         -51.1744  -25.1195   18.0492 N.am      10 UNK        -0.4242 
     38 C         -50.1272  -25.8126   18.5251 C.2       10 UNK         0.5072 
     39 O         -50.1944  -26.5802   19.4860 O.2       10 UNK        -0.5224 
     40 CA        -48.7736  -25.6541   17.8025 C.3       9 UNK         0.0343 
     41 CB        -48.3687  -26.9797   17.1353 C.3       9 UNK        -0.2003 
     42 N         -48.7561  -24.5977   16.7878 N.am      9 UNK        -0.4272 
     43 C         -48.7582  -23.2800   17.0297 C.2       9 UNK         0.4988 
     44 O         -48.7082  -22.7882   18.1571 O.2       9 UNK        -0.5108 
     45 CA        -48.8817  -22.3578   15.8035 C.3       8 UNK         0.0248 
     46 CB        -47.4992  -22.0713   15.1948 C.3       8 UNK        -0.2001 
     47 N         -49.7754  -22.8955   14.7704 N.am      8 UNK        -0.4140 
     48 C         -51.0958  -23.0780   14.9208 C.2       8 UNK         0.5028 
     49 O         -51.7122  -22.8073   15.9511 O.2       8 UNK        -0.5428 
     50 CA        -51.8456  -23.7207   13.7429 C.3       7 UNK         0.0264 
     51 CB        -52.0921  -22.7051   12.6165 C.3       7 UNK        -0.1988 
     52 N         -51.1386  -24.8871   13.2123 N.am      7 UNK        -0.4454 
     53 C         -51.0134  -26.0505   13.8715 C.2       7 UNK         0.5027 
     54 O         -51.5481  -26.2708   14.9598 O.2       7 UNK        -0.5083 
     55 CA        -50.1190  -27.1381   13.2355 C.3       6 UNK         0.0844 
     56 C56       -50.9658  -28.0714   12.3349 C.3       14 UNK        -0.0967 
     57 S57       -49.9894  -29.4154   11.5665 S.3       14 UNK        -0.2604 
     58 C58       -49.4654  -28.7161    9.9617 C.3       14 UNK         0.0134 
     59 N         -48.9785  -26.5680   12.5143 N.am      6 UNK        -0.4116 
     60 C         -48.0455  -25.7532   13.0184 C.2       5 UNK         0.5034 
     61 O         -47.9794  -25.4444   14.2064 O.2       5 UNK        -0.5045 
     62 CA        -47.0450  -25.1314   12.0297 C.3       5 UNK         0.0224 
     63 CB        -45.6995  -25.8690   12.1092 C.3       5 UNK        -0.1978 
     64 N         -47.4727  -25.0762   10.6241 N.am      5 UNK        -0.4737 
     65 C         -48.6008  -24.5541   10.1247 C.2       4 UNK         0.5027 
     66 O         -49.5257  -24.1463   10.8282 O.2       4 UNK        -0.5211 
     67 CA        -48.7518  -24.4946    8.5891 C.3       4 UNK         0.0297 
     68 CB        -48.4040  -23.0851    8.0755 C.3       4 UNK        -0.1993 
     69 N         -48.0353  -25.5240    7.8109 N.am      4 UNK        -0.4486 
     70 C         -46.7128  -25.7312    7.7024 C.2       3 UNK         0.4961 
     71 O         -45.8635  -25.1208    8.3515 O.2       3 UNK        -0.5105 
     72 CA        -46.2473  -26.8139    6.7127 C.3       3 UNK         0.0299 
     73 CB        -46.2358  -28.1870    7.4038 C.3       3 UNK        -0.1972 
     74 N         -47.0209  -26.8936    5.4667 N.am      3 UNK        -0.4305 
     75 C         -47.2226  -25.8813    4.6047 C.2       2 UNK         0.5006 
     76 O         -46.7860  -24.7436    4.7839 O.2       2 UNK        -0.5106 
     77 CA        -48.0151  -26.1598    3.3084 C.3       2 UNK         0.0296 
     78 CB        -47.1814  -25.7906    2.0680 C.3       2 UNK        -0.2002 
     79 N         -48.4788  -27.5408    3.1594 N.am      2 UNK        -0.4032 
     80 C         -49.4984  -28.1026    3.8247 C.2       1 UNK         0.5000 
     81 O         -50.1863  -27.4824    4.6362 O.2       1 UNK        -0.5238 
     82 H82       -45.4350  -30.7486    3.0017 H         1 UNK         0.0889 
     83 H83       -46.6333  -31.6922    2.1128 H         1 UNK         0.0889 
     84 H84       -46.1162  -32.2112    3.7184 H         1 UNK         0.0889 
     85 H85       -48.6588  -30.7423    2.1465 H         1 UNK         0.3028 
     86 H86       -50.4467  -29.6136    2.6846 H         1 UNK         0.0864 
     87 H87       -50.0459  -30.0334    5.6694 H         1 UNK         0.0720 
     88 H88       -50.2647  -31.4216    4.6493 H         1 UNK         0.0720 
     89 H89       -52.2803  -31.3964    6.7695 H         1 UNK         0.0814 
     90 H90       -53.7676  -30.5103    6.5511 H         1 UNK         0.0814 
     91 H91       -50.6169  -30.4827    8.2410 H         1 UNK         0.1469 
     92 H92       -50.9132  -26.4243    9.5956 H         1 UNK         0.1381 
     93 H93       -53.6496  -27.9019    6.6516 H         1 UNK         0.1206 
     94 H94       -53.7381  -25.5914    7.2701 H         1 UNK         0.0813 
     95 H95       -52.3472  -24.8685    8.0401 H         1 UNK         0.0813 
     96 H96       -54.4573  -27.7907    9.9988 H         1 UNK         0.0638 
     97 H97       -55.3326  -27.1756    8.6211 H         1 UNK         0.0638 
     98 H98       -56.9592  -26.0394   10.0635 H         1 UNK         0.0568 
     99 H99       -57.8447  -28.0738   12.3492 H         1 UNK         0.3450 
    100 H100      -58.5355  -29.3409   11.3663 H         1 UNK         0.3450 
    101 H101      -56.5580  -25.5023   12.1351 H         1 UNK         0.2987 
    102 H102      -54.7726  -25.2965   13.9438 H         1 UNK         0.0766 
    103 H103      -56.5320  -25.4634   15.7627 H         1 UNK         0.0798 
    104 H104      -57.2413  -26.8325   14.9119 H         1 UNK         0.0798 
    105 H105      -57.2102  -25.2445   14.1636 H         1 UNK         0.0798 
    106 H106      -53.4615  -26.5050   15.2351 H         1 UNK         0.3198 
    107 H107      -53.9755  -28.9893   17.6414 H         1 UNK         0.0843 
    108 H108      -51.9555  -28.9379   15.3316 H         1 UNK         0.0831 
    109 H109      -52.9722  -30.3004   15.7736 H         1 UNK         0.0831 
    110 H110      -51.7304  -29.7412   16.8834 H         1 UNK         0.0831 
    111 H111      -52.0163  -26.9438   16.7921 H         1 UNK         0.3133 
    112 H112      -53.0942  -24.4255   17.9119 H         1 UNK         0.0566 
    113 H113      -52.1488  -23.6881   20.1173 H         1 UNK         0.0814 
    114 H114      -53.6971  -24.4967   20.2855 H         1 UNK         0.0814 
    115 H115      -52.2207  -25.3529   20.6954 H         1 UNK         0.0814 
    116 H116      -51.0152  -24.5132   17.2534 H         1 UNK         0.3091 
    117 H117      -48.0275  -25.4089   18.5610 H         1 UNK         0.0702 
    118 H118      -47.3937  -26.9011   16.6537 H         1 UNK         0.0785 
    119 H119      -49.0923  -27.2844   16.3789 H         1 UNK         0.0785 
    120 H120      -48.3035  -27.7854   17.8678 H         1 UNK         0.0785 
    121 H121      -48.6994  -24.9051   15.8190 H         1 UNK         0.2998 
    122 H122      -49.3048  -21.4109   16.1457 H         1 UNK         0.0697 
    123 H123      -47.0183  -22.9796   14.8302 H         1 UNK         0.0825 
    124 H124      -46.8332  -21.6282   15.9366 H         1 UNK         0.0825 
    125 H125      -47.5679  -21.3696   14.3635 H         1 UNK         0.0825 
    126 H126      -49.3483  -23.1819   13.9018 H         1 UNK         0.3029 
    127 H127      -52.8164  -24.0493   14.1162 H         1 UNK         0.0897 
    128 H128      -52.6807  -23.1449   11.8108 H         1 UNK         0.0792 
    129 H129      -51.1591  -22.3399   12.1857 H         1 UNK         0.0792 
    130 H130      -52.6432  -21.8390   12.9856 H         1 UNK         0.0792 
    131 H131      -50.6457  -24.7573   12.3319 H         1 UNK         0.3086 
    132 H132      -49.7097  -27.7356   14.0521 H         1 UNK         0.0583 
    133 H133      -51.7488  -28.5471   12.9291 H         1 UNK         0.1020 
    134 H134      -51.5019  -27.5075   11.5733 H         1 UNK         0.1020 
    135 H135      -48.9032  -27.7950   10.1078 H         1 UNK         0.0694 
    136 H136      -48.7656  -29.4141    9.4997 H         1 UNK         0.0694 
    137 H137      -48.9377  -26.7600   11.5268 H         1 UNK         0.2989 
    138 H138      -46.8891  -24.1003   12.3531 H         1 UNK         0.1055 
    139 H139      -45.3294  -25.9027   13.1352 H         1 UNK         0.0806 
    140 H140      -44.9375  -25.3709   11.5090 H         1 UNK         0.0806 
    141 H141      -45.7833  -26.8982   11.7576 H         1 UNK         0.0806 
    142 H142      -46.7598  -25.3017    9.9334 H         1 UNK         0.3061 
    143 H143      -49.8098  -24.6573    8.3813 H         1 UNK         0.0734 
    144 H144      -48.5887  -22.9968    7.0047 H         1 UNK         0.0832 
    145 H145      -49.0110  -22.3275    8.5732 H         1 UNK         0.0832 
    146 H146      -47.3586  -22.8326    8.2562 H         1 UNK         0.0832 
    147 H147      -48.6285  -26.1153    7.2438 H         1 UNK         0.3156 
    148 H148      -45.2204  -26.5698    6.4336 H         1 UNK         0.0589 
    149 H149      -47.2457  -28.5517    7.5952 H         1 UNK         0.0808 
    150 H150      -45.7220  -28.9306    6.7947 H         1 UNK         0.0808 
    151 H151      -45.7144  -28.1443    8.3614 H         1 UNK         0.0808 
    152 H152      -47.3802  -27.8097    5.2253 H         1 UNK         0.3098 
    153 H153      -48.8920  -25.5093    3.3310 H         1 UNK         0.0720 
    154 H154      -47.7538  -25.9243    1.1498 H         1 UNK         0.0791 
    155 H155      -46.2784  -26.3980    1.9938 H         1 UNK         0.0791 
    156 H156      -46.8690  -24.7458    2.0992 H         1 UNK         0.0791 
    157 H157      -47.9565  -28.1247    2.5223 H         1 UNK         0.3028 
@<TRIPOS>BOND
     1    1    2 1    
     2    1   82 1    
     3    1   83 1    
     4    1   84 1    
     5    2    3 2    
     6    2    4 am   BACKBONE|DICT|INTERRES
     7    4    5 1    
     8    4   85 1    
     9    5    6 1    
    10    5   80 1    
    11    5   86 1    
    12    6    7 1    
    13    6   87 1    
    14    6   88 1    
    15    7    8 1    
    16    8    9 1    
    17    8   89 1    
    18    8   90 1    
    19    9   10 ar   
    20    9   14 ar   
    21   10   11 ar   
    22   10   91 1    
    23   11   12 ar   
    24   11   58 1    
    25   12   13 ar   
    26   12   92 1    
    27   13   14 ar   
    28   13   15 1    
    29   14   93 1    
    30   15   16 1    
    31   15   94 1    
    32   15   95 1    
    33   16   17 1    
    34   17   18 1    
    35   17   96 1    
    36   17   97 1    
    37   18   19 1    
    38   18   22 1    
    39   18   98 1    
    40   19   20 am   BACKBONE|DICT|INTERRES
    41   19   21 2    
    42   20   99 1    
    43   20  100 1    
    44   22   23 am   BACKBONE|DICT|INTERRES
    45   22  101 1    
    46   23   24 2    
    47   23   25 1    
    48   25   26 1    
    49   25   27 1    
    50   25  102 1    
    51   26  103 1    
    52   26  104 1    
    53   26  105 1    
    54   27   28 am   BACKBONE|DICT|INTERRES
    55   27  106 1    
    56   28   29 2    
    57   28   30 1    
    58   30   31 1    
    59   30   32 1    
    60   30  107 1    
    61   31  108 1    
    62   31  109 1    
    63   31  110 1    
    64   32   33 am   BACKBONE|DICT|INTERRES
    65   32  111 1    
    66   33   34 2    
    67   33   35 1    
    68   35   36 1    
    69   35   37 1    
    70   35  112 1    
    71   36  113 1    
    72   36  114 1    
    73   36  115 1    
    74   37   38 am   BACKBONE|DICT|INTERRES
    75   37  116 1    
    76   38   39 2    
    77   38   40 1    
    78   40   41 1    
    79   40   42 1    
    80   40  117 1    
    81   41  118 1    
    82   41  119 1    
    83   41  120 1    
    84   42   43 am   BACKBONE|DICT|INTERRES
    85   42  121 1    
    86   43   44 2    
    87   43   45 1    
    88   45   46 1    
    89   45   47 1    
    90   45  122 1    
    91   46  123 1    
    92   46  124 1    
    93   46  125 1    
    94   47   48 am   BACKBONE|DICT|INTERRES
    95   47  126 1    
    96   48   49 2    
    97   48   50 1    
    98   50   51 1    
    99   50   52 1    
   100   50  127 1    
   101   51  128 1    
   102   51  129 1    
   103   51  130 1    
   104   52   53 am   BACKBONE|DICT|INTERRES
   105   52  131 1    
   106   53   54 2    
   107   53   55 1    
   108   55   56 1    
   109   55   59 1    
   110   55  132 1    
   111   56   57 1    
   112   56  133 1    
   113   56  134 1    
   114   57   58 1    
   115   58  135 1    
   116   58  136 1    
   117   59   60 am   BACKBONE|DICT|INTERRES
   118   59  137 1    
   119   60   61 2    
   120   60   62 1    
   121   62   63 1    
   122   62   64 1    
   123   62  138 1    
   124   63  139 1    
   125   63  140 1    
   126   63  141 1    
   127   64   65 am   BACKBONE|DICT|INTERRES
   128   64  142 1    
   129   65   66 2    
   130   65   67 1    
   131   67   68 1    
   132   67   69 1    
   133   67  143 1    
   134   68  144 1    
   135   68  145 1    
   136   68  146 1    
   137   69   70 am   BACKBONE|DICT|INTERRES
   138   69  147 1    
   139   70   71 2    
   140   70   72 1    
   141   72   73 1    
   142   72   74 1    
   143   72  148 1    
   144   73  149 1    
   145   73  150 1    
   146   73  151 1    
   147   74   75 am   BACKBONE|DICT|INTERRES
   148   74  152 1    
   149   75   76 2    
   150   75   77 1    
   151   77   78 1    
   152   77   79 1    
   153   77  153 1    
   154   78  154 1    
   155   78  155 1    
   156   78  156 1    
   157   79   80 am   BACKBONE|DICT|INTERRES
   158   79  157 1    
   159   80   81 2    
@<TRIPOS>SUBSTRUCTURE
     1 UNK         1 GROUP             0       ****    0 ROOT    
