@<TRIPOS>MOLECULE
3R207
157   159    1
SMALL
USER_CHARGES


@<TRIPOS>ATOM
      1 CA        -48.3811  -33.2690    4.2815 C.3       0 UNK        -0.1975 
      2 C         -47.9877  -31.8056    4.1421 C.2       0 UNK         0.4852 
      3 O         -46.7986  -31.4980    4.0445 O.2       0 UNK        -0.5216 
      4 N         -48.9769  -30.9038    4.1214 N.am      1 UNK        -0.4461 
      5 CA        -48.7898  -29.4508    4.0801 C.3       1 UNK         0.0864 
      6 C6        -50.0733  -28.7219    3.5984 C.3       14 UNK        -0.0898 
      7 S7        -51.5784  -29.1331    4.5521 S.3       14 UNK        -0.2598 
      8 C8        -51.7504  -27.6397    5.5730 C.3       14 UNK         0.0286 
      9 C9        -52.5333  -27.9270    6.8416 C.ar      14 UNK        -0.0844 
     10 C10       -51.8727  -28.4376    7.9621 C.ar      14 UNK        -0.0881 
     11 C11       -52.5715  -28.7035    9.1446 C.ar      14 UNK        -0.0643 
     12 C12       -53.9472  -28.4560    9.1915 C.ar      14 UNK        -0.0930 
     13 C13       -54.6236  -27.9614    8.0697 C.ar      14 UNK        -0.0827 
     14 C14       -53.9093  -27.6910    6.8988 C.ar      14 UNK        -0.1249 
     15 C15       -56.1288  -27.7449    8.1213 C.3       14 UNK         0.0141 
     16 S16       -57.0017  -29.3432    8.1676 S.3       14 UNK        -0.2313 
     17 C17       -58.4538  -28.9809    9.2187 C.3       14 UNK        -0.0915 
     18 CA        -58.2348  -29.2279   10.7396 C.3       13 UNK         0.0968 
     19 C         -57.8649  -30.7066   11.0625 C.2       13 UNK         0.5732 
     20 N         -58.8450  -31.6003   11.0640 N.am      13 UNK        -0.7310 
     21 O         -56.7051  -31.0550   11.2789 O.2       13 UNK        -0.5035 
     22 N         -57.3128  -28.2279   11.2945 N.am      13 UNK        -0.4233 
     23 C         -56.9723  -28.0803   12.5782 C.2       13 UNK         0.4989 
     24 O         -57.4115  -28.7598   13.5096 O.2       13 UNK        -0.4996 
     25 CA        -55.9997  -26.9356   12.8712 C.3       12 UNK         0.0216 
     26 CB        -56.7604  -25.6179   13.1158 C.3       12 UNK        -0.1964 
     27 N         -55.1958  -27.2847   14.0378 N.am      12 UNK        -0.4276 
     28 C         -54.0092  -26.7468   14.3312 C.2       12 UNK         0.5020 
     29 O         -53.4731  -25.8671   13.6530 O.2       12 UNK        -0.5489 
     30 CA        -53.2853  -27.3126   15.5600 C.3       11 UNK         0.0294 
     31 CB        -52.3724  -28.4798   15.1469 C.3       11 UNK        -0.2019 
     32 N         -52.4608  -26.2660   16.1569 N.am      11 UNK        -0.4493 
     33 C         -52.7458  -25.5895   17.2754 C.2       11 UNK         0.4932 
     34 O         -53.7251  -25.8260   17.9857 O.2       11 UNK        -0.5029 
     35 CA        -51.7760  -24.4502   17.6534 C.3       10 UNK         0.0280 
     36 CB        -51.9309  -23.9752   19.1140 C.3       10 UNK        -0.1976 
     37 N         -50.3767  -24.7639   17.3414 N.am      10 UNK        -0.4242 
     38 C         -49.6196  -25.7465   17.8553 C.2       10 UNK         0.5072 
     39 O         -49.9887  -26.4921   18.7640 O.2       10 UNK        -0.5224 
     40 CA        -48.2169  -25.9635   17.2493 C.3       9 UNK         0.0343 
     41 CB        -48.1475  -27.3240   16.5342 C.3       9 UNK        -0.2003 
     42 N         -47.8068  -24.9168   16.3085 N.am      9 UNK        -0.4272 
     43 C         -47.3793  -23.6950   16.6553 C.2       9 UNK         0.4988 
     44 O         -47.2130  -23.3334   17.8206 O.2       9 UNK        -0.5108 
     45 CA        -47.1275  -22.6945   15.5118 C.3       8 UNK         0.0248 
     46 CB        -45.7046  -22.8567   14.9542 C.3       8 UNK        -0.2001 
     47 N         -48.1045  -22.7985   14.4211 N.am      8 UNK        -0.4140 
     48 C         -49.4206  -22.5721   14.5565 C.2       8 UNK         0.5028 
     49 O         -49.9465  -22.2107   15.6092 O.2       8 UNK        -0.5428 
     50 CA        -50.3147  -22.8492   13.3358 C.3       7 UNK         0.0264 
     51 CB        -50.2452  -21.6901   12.3294 C.3       7 UNK        -0.1988 
     52 N         -50.0006  -24.1141   12.6662 N.am      7 UNK        -0.4454 
     53 C         -50.0606  -25.3198   13.2520 C.2       7 UNK         0.5027 
     54 O         -50.4027  -25.4935   14.4206 O.2       7 UNK        -0.5083 
     55 CA        -49.5875  -26.5324   12.4287 C.3       6 UNK         0.0844 
     56 C56       -50.6755  -27.0044   11.4362 C.3       14 UNK        -0.0967 
     57 S57       -50.2297  -28.6083   10.6972 S.3       14 UNK        -0.2604 
     58 C58       -51.8696  -29.3259   10.3489 C.3       14 UNK         0.0134 
     59 N         -48.2983  -26.2671   11.7825 N.am      6 UNK        -0.4116 
     60 C         -47.1626  -25.9903   12.4405 C.2       5 UNK         0.5034 
     61 O         -47.0533  -26.0074   13.6662 O.2       5 UNK        -0.5045 
     62 CA        -45.9612  -25.5554   11.5905 C.3       5 UNK         0.0224 
     63 CB        -45.2130  -26.7727   11.0243 C.3       5 UNK        -0.1978 
     64 N         -46.3689  -24.6571   10.5074 N.am      5 UNK        -0.4737 
     65 C         -46.7794  -23.3950   10.7024 C.2       4 UNK         0.5027 
     66 O         -46.8055  -22.8510   11.8057 O.2       4 UNK        -0.5211 
     67 CA        -47.2786  -22.6194    9.4715 C.3       4 UNK         0.0297 
     68 CB        -46.1037  -21.9392    8.7520 C.3       4 UNK        -0.1993 
     69 N         -48.0160  -23.4581    8.5239 N.am      4 UNK        -0.4486 
     70 C         -49.1857  -24.0588    8.7876 C.2       3 UNK         0.4961 
     71 O         -49.7943  -23.9349    9.8491 O.2       3 UNK        -0.5105 
     72 CA        -49.7510  -24.9889    7.6992 C.3       3 UNK         0.0299 
     73 CB        -50.6341  -24.1868    6.7296 C.3       3 UNK        -0.1972 
     74 N         -48.7202  -25.7168    6.9463 N.am      3 UNK        -0.4305 
     75 C         -47.8093  -26.5383    7.4908 C.2       2 UNK         0.5006 
     76 O         -47.7287  -26.7569    8.7011 O.2       2 UNK        -0.5106 
     77 CA        -46.8040  -27.1793    6.5141 C.3       2 UNK         0.0296 
     78 CB        -45.7970  -28.1159    7.2172 C.3       2 UNK        -0.2002 
     79 N         -47.4523  -27.8573    5.3818 N.am      2 UNK        -0.4032 
     80 C         -48.2771  -28.9156    5.4371 C.2       1 UNK         0.5000 
     81 O         -48.6402  -29.4567    6.4849 O.2       1 UNK        -0.5238 
     82 H82       -48.0216  -33.8379    3.4244 H         1 UNK         0.0889 
     83 H83       -49.4618  -33.3962    4.3438 H         1 UNK         0.0889 
     84 H84       -47.9376  -33.6919    5.1825 H         1 UNK         0.0889 
     85 H85       -49.9336  -31.2046    4.2449 H         1 UNK         0.3028 
     86 H86       -48.0111  -29.2510    3.3401 H         1 UNK         0.0864 
     87 H87       -49.9243  -27.6406    3.5810 H         1 UNK         0.0720 
     88 H88       -50.2676  -28.9979    2.5608 H         1 UNK         0.0720 
     89 H89       -52.2329  -26.8547    4.9889 H         1 UNK         0.0814 
     90 H90       -50.7639  -27.2652    5.8434 H         1 UNK         0.0814 
     91 H91       -50.8112  -28.6413    7.9062 H         1 UNK         0.1469 
     92 H92       -54.5026  -28.6846   10.0908 H         1 UNK         0.1381 
     93 H93       -54.4247  -27.3112    6.0270 H         1 UNK         0.1206 
     94 H94       -56.3715  -27.1364    8.9910 H         1 UNK         0.0813 
     95 H95       -56.4731  -27.1807    7.2530 H         1 UNK         0.0813 
     96 H96       -58.7743  -27.9525    9.0441 H         1 UNK         0.0638 
     97 H97       -59.2775  -29.6018    8.8624 H         1 UNK         0.0638 
     98 H98       -59.1895  -29.0401   11.2348 H         1 UNK         0.0568 
     99 H99       -58.6256  -32.5647   11.2579 H         1 UNK         0.3450 
    100 H100      -59.7983  -31.3318   10.8758 H         1 UNK         0.3450 
    101 H101      -56.8924  -27.6138   10.6168 H         1 UNK         0.2987 
    102 H102      -55.3363  -26.8163   12.0111 H         1 UNK         0.0766 
    103 H103      -56.0750  -24.7864   13.2811 H         1 UNK         0.0798 
    104 H104      -57.4158  -25.6883   13.9849 H         1 UNK         0.0798 
    105 H105      -57.3812  -25.3565   12.2580 H         1 UNK         0.0798 
    106 H106      -55.5791  -28.0329   14.6035 H         1 UNK         0.3198 
    107 H107      -54.0236  -27.6758   16.2783 H         1 UNK         0.0843 
    108 H108      -51.6291  -28.1702   14.4110 H         1 UNK         0.0831 
    109 H109      -52.9495  -29.2935   14.7059 H         1 UNK         0.0831 
    110 H110      -51.8397  -28.8874   16.0062 H         1 UNK         0.0831 
    111 H111      -51.6832  -25.9456   15.5779 H         1 UNK         0.3133 
    112 H112      -52.0396  -23.6105   17.0090 H         1 UNK         0.0566 
    113 H113      -51.2397  -23.1638   19.3419 H         1 UNK         0.0814 
    114 H114      -52.9390  -23.6020   19.2980 H         1 UNK         0.0814 
    115 H115      -51.7497  -24.7814   19.8254 H         1 UNK         0.0814 
    116 H116      -49.9806  -24.2205   16.5833 H         1 UNK         0.3091 
    117 H117      -47.5059  -25.9794   18.0778 H         1 UNK         0.0702 
    118 H118      -48.3919  -28.1397   17.2158 H         1 UNK         0.0785 
    119 H119      -48.8478  -27.3756   15.6998 H         1 UNK         0.0785 
    120 H120      -47.1480  -27.5166   16.1437 H         1 UNK         0.0785 
    121 H121      -47.8539  -25.1546   15.3222 H         1 UNK         0.2998 
    122 H122      -47.2135  -21.6899   15.9311 H         1 UNK         0.0697 
    123 H123      -45.5595  -23.8356   14.4969 H         1 UNK         0.0825 
    124 H124      -44.9606  -22.7519   15.7449 H         1 UNK         0.0825 
    125 H125      -45.4853  -22.1001   14.2005 H         1 UNK         0.0825 
    126 H126      -47.7397  -23.0371   13.5021 H         1 UNK         0.3029 
    127 H127      -51.3437  -22.9246   13.6946 H         1 UNK         0.0897 
    128 H128      -50.9295  -21.8477   11.4954 H         1 UNK         0.0792 
    129 H129      -49.2423  -21.5692   11.9203 H         1 UNK         0.0792 
    130 H130      -50.5209  -20.7465   12.8020 H         1 UNK         0.0792 
    131 H131      -49.7574  -24.0599   11.6781 H         1 UNK         0.3086 
    132 H132      -49.4199  -27.3425   13.1421 H         1 UNK         0.0583 
    133 H133      -51.6351  -27.1078   11.9469 H         1 UNK         0.1020 
    134 H134      -50.8317  -26.2761   10.6393 H         1 UNK         0.1020 
    135 H135      -51.7418  -30.3910   10.1522 H         1 UNK         0.0694 
    136 H136      -52.4893  -29.2526   11.2442 H         1 UNK         0.0694 
    137 H137      -48.2842  -26.2735   10.7690 H         1 UNK         0.2989 
    138 H138      -45.2740  -25.0106   12.2419 H         1 UNK         0.1055 
    139 H139      -44.8290  -27.3979   11.8314 H         1 UNK         0.0806 
    140 H140      -44.3605  -26.4694   10.4164 H         1 UNK         0.0806 
    141 H141      -45.8584  -27.4015   10.4110 H         1 UNK         0.0806 
    142 H142      -46.4524  -25.0631    9.5852 H         1 UNK         0.3061 
    143 H143      -47.9577  -21.8408    9.8248 H         1 UNK         0.0734 
    144 H144      -46.4494  -21.3160    7.9270 H         1 UNK         0.0832 
    145 H145      -45.5527  -21.2912    9.4354 H         1 UNK         0.0832 
    146 H146      -45.3959  -22.6664    8.3523 H         1 UNK         0.0832 
    147 H147      -47.5926  -23.6118    7.6206 H         1 UNK         0.3156 
    148 H148      -50.3766  -25.7333    8.1963 H         1 UNK         0.0589 
    149 H149      -50.0603  -23.4350    6.1863 H         1 UNK         0.0808 
    150 H150      -51.1200  -24.8298    5.9976 H         1 UNK         0.0808 
    151 H151      -51.4254  -23.6640    7.2690 H         1 UNK         0.0808 
    152 H152      -48.7032  -25.5751    5.9468 H         1 UNK         0.3098 
    153 H153      -46.2305  -26.3549    6.0877 H         1 UNK         0.0720 
    154 H154      -45.0917  -28.5469    6.5067 H         1 UNK         0.0791 
    155 H155      -46.2968  -28.9364    7.7333 H         1 UNK         0.0791 
    156 H156      -45.2143  -27.5725    7.9615 H         1 UNK         0.0791 
    157 H157      -47.2232  -27.4842    4.4704 H         1 UNK         0.3028 
@<TRIPOS>BOND
     1    1    2 1    
     2    1   82 1    
     3    1   83 1    
     4    1   84 1    
     5    2    3 2    
     6    2    4 am   BACKBONE|DICT|INTERRES
     7    4    5 1    
     8    4   85 1    
     9    5    6 1    
    10    5   80 1    
    11    5   86 1    
    12    6    7 1    
    13    6   87 1    
    14    6   88 1    
    15    7    8 1    
    16    8    9 1    
    17    8   89 1    
    18    8   90 1    
    19    9   10 ar   
    20    9   14 ar   
    21   10   11 ar   
    22   10   91 1    
    23   11   12 ar   
    24   11   58 1    
    25   12   13 ar   
    26   12   92 1    
    27   13   14 ar   
    28   13   15 1    
    29   14   93 1    
    30   15   16 1    
    31   15   94 1    
    32   15   95 1    
    33   16   17 1    
    34   17   18 1    
    35   17   96 1    
    36   17   97 1    
    37   18   19 1    
    38   18   22 1    
    39   18   98 1    
    40   19   20 am   BACKBONE|DICT|INTERRES
    41   19   21 2    
    42   20   99 1    
    43   20  100 1    
    44   22   23 am   BACKBONE|DICT|INTERRES
    45   22  101 1    
    46   23   24 2    
    47   23   25 1    
    48   25   26 1    
    49   25   27 1    
    50   25  102 1    
    51   26  103 1    
    52   26  104 1    
    53   26  105 1    
    54   27   28 am   BACKBONE|DICT|INTERRES
    55   27  106 1    
    56   28   29 2    
    57   28   30 1    
    58   30   31 1    
    59   30   32 1    
    60   30  107 1    
    61   31  108 1    
    62   31  109 1    
    63   31  110 1    
    64   32   33 am   BACKBONE|DICT|INTERRES
    65   32  111 1    
    66   33   34 2    
    67   33   35 1    
    68   35   36 1    
    69   35   37 1    
    70   35  112 1    
    71   36  113 1    
    72   36  114 1    
    73   36  115 1    
    74   37   38 am   BACKBONE|DICT|INTERRES
    75   37  116 1    
    76   38   39 2    
    77   38   40 1    
    78   40   41 1    
    79   40   42 1    
    80   40  117 1    
    81   41  118 1    
    82   41  119 1    
    83   41  120 1    
    84   42   43 am   BACKBONE|DICT|INTERRES
    85   42  121 1    
    86   43   44 2    
    87   43   45 1    
    88   45   46 1    
    89   45   47 1    
    90   45  122 1    
    91   46  123 1    
    92   46  124 1    
    93   46  125 1    
    94   47   48 am   BACKBONE|DICT|INTERRES
    95   47  126 1    
    96   48   49 2    
    97   48   50 1    
    98   50   51 1    
    99   50   52 1    
   100   50  127 1    
   101   51  128 1    
   102   51  129 1    
   103   51  130 1    
   104   52   53 am   BACKBONE|DICT|INTERRES
   105   52  131 1    
   106   53   54 2    
   107   53   55 1    
   108   55   56 1    
   109   55   59 1    
   110   55  132 1    
   111   56   57 1    
   112   56  133 1    
   113   56  134 1    
   114   57   58 1    
   115   58  135 1    
   116   58  136 1    
   117   59   60 am   BACKBONE|DICT|INTERRES
   118   59  137 1    
   119   60   61 2    
   120   60   62 1    
   121   62   63 1    
   122   62   64 1    
   123   62  138 1    
   124   63  139 1    
   125   63  140 1    
   126   63  141 1    
   127   64   65 am   BACKBONE|DICT|INTERRES
   128   64  142 1    
   129   65   66 2    
   130   65   67 1    
   131   67   68 1    
   132   67   69 1    
   133   67  143 1    
   134   68  144 1    
   135   68  145 1    
   136   68  146 1    
   137   69   70 am   BACKBONE|DICT|INTERRES
   138   69  147 1    
   139   70   71 2    
   140   70   72 1    
   141   72   73 1    
   142   72   74 1    
   143   72  148 1    
   144   73  149 1    
   145   73  150 1    
   146   73  151 1    
   147   74   75 am   BACKBONE|DICT|INTERRES
   148   74  152 1    
   149   75   76 2    
   150   75   77 1    
   151   77   78 1    
   152   77   79 1    
   153   77  153 1    
   154   78  154 1    
   155   78  155 1    
   156   78  156 1    
   157   79   80 am   BACKBONE|DICT|INTERRES
   158   79  157 1    
   159   80   81 2    
@<TRIPOS>SUBSTRUCTURE
     1 UNK         1 GROUP             0       ****    0 ROOT    
