@<TRIPOS>MOLECULE
3R207
157   159    1
SMALL
USER_CHARGES


@<TRIPOS>ATOM
      1 CA        -55.0812  -25.7401    4.0690 C.3       0 UNK        -0.1975 
      2 C         -54.2927  -25.6107    5.3639 C.2       0 UNK         0.4852 
      3 O         -54.6731  -24.8274    6.2345 O.2       0 UNK        -0.5216 
      4 N         -53.2038  -26.3791    5.4982 N.am      1 UNK        -0.4461 
      5 CA        -52.2961  -26.3733    6.6499 C.3       1 UNK         0.0864 
      6 C6        -51.2699  -27.5306    6.5712 C.3       14 UNK        -0.0898 
      7 S7        -52.0718  -29.1639    6.6288 S.3       14 UNK        -0.2598 
      8 C8        -50.6658  -30.2388    7.0824 C.3       14 UNK         0.0286 
      9 C9        -50.3450  -30.2985    8.5773 C.ar      14 UNK        -0.0844 
     10 C10       -49.0238  -30.5182    8.9840 C.ar      14 UNK        -0.0881 
     11 C11       -48.7030  -30.6708   10.3375 C.ar      14 UNK        -0.0643 
     12 C12       -49.7196  -30.5959   11.2943 C.ar      14 UNK        -0.0930 
     13 C13       -51.0452  -30.3701   10.9082 C.ar      14 UNK        -0.0827 
     14 C14       -51.3481  -30.2167    9.5510 C.ar      14 UNK        -0.1249 
     15 C15       -52.1438  -30.2731   11.9597 C.3       14 UNK         0.0141 
     16 S16       -53.5288  -31.4106   11.6397 S.3       14 UNK        -0.2313 
     17 C17       -54.7274  -30.8849   12.9118 C.3       14 UNK        -0.0915 
     18 CA        -55.8190  -29.9344   12.3435 C.3       13 UNK         0.0968 
     19 C         -57.0455  -29.8106   13.2893 C.2       13 UNK         0.5732 
     20 N         -57.7269  -30.9152   13.5650 N.am      13 UNK        -0.7310 
     21 O         -57.4075  -28.7363   13.7644 O.2       13 UNK        -0.5035 
     22 N         -55.2527  -28.6167   12.0187 N.am      13 UNK        -0.4233 
     23 C         -55.1331  -28.1073   10.7863 C.2       13 UNK         0.4989 
     24 O         -55.5128  -28.6932    9.7712 O.2       13 UNK        -0.4996 
     25 CA        -54.4310  -26.7408   10.6296 C.3       12 UNK         0.0216 
     26 CB        -55.0936  -25.8620    9.5466 C.3       12 UNK        -0.1964 
     27 N         -54.2406  -25.9871   11.8758 N.am      12 UNK        -0.4276 
     28 C         -55.1773  -25.4559   12.6733 C.2       12 UNK         0.5020 
     29 O         -56.3876  -25.5156   12.4498 O.2       12 UNK        -0.5489 
     30 CA        -54.6556  -24.7532   13.9450 C.3       11 UNK         0.0294 
     31 CB        -55.7853  -24.3886   14.9312 C.3       11 UNK        -0.2019 
     32 N         -53.5992  -25.5036   14.6407 N.am      11 UNK        -0.4493 
     33 C         -53.6608  -26.7648   15.0963 C.2       11 UNK         0.4932 
     34 O         -54.6312  -27.5020   14.9252 O.2       11 UNK        -0.5029 
     35 CA        -52.4416  -27.3241   15.8558 C.3       10 UNK         0.0280 
     36 CB        -52.0275  -28.6933   15.2987 C.3       10 UNK        -0.1976 
     37 N         -51.2722  -26.4411   15.8442 N.am      10 UNK        -0.4242 
     38 C         -51.0515  -25.4551   16.7240 C.2       10 UNK         0.5072 
     39 O         -51.8327  -25.1530   17.6267 O.2       10 UNK        -0.5224 
     40 CA        -49.7422  -24.6644   16.5656 C.3       9 UNK         0.0343 
     41 CB        -48.5643  -25.4437   17.1723 C.3       9 UNK        -0.2003 
     42 N         -49.4392  -24.3251   15.1736 N.am      9 UNK        -0.4272 
     43 C         -50.1645  -23.4872   14.4172 C.2       9 UNK         0.4988 
     44 O         -51.1707  -22.8987   14.8137 O.2       9 UNK        -0.5108 
     45 CA        -49.7096  -23.3046   12.9588 C.3       8 UNK         0.0248 
     46 CB        -48.4513  -22.4253   12.8812 C.3       8 UNK        -0.2001 
     47 N         -49.4702  -24.5875   12.2956 N.am      8 UNK        -0.4140 
     48 C         -50.4202  -25.5089   12.0838 C.2       8 UNK         0.5028 
     49 O         -51.6119  -25.3430   12.3363 O.2       8 UNK        -0.5428 
     50 CA        -49.9734  -26.8580   11.5187 C.3       7 UNK         0.0264 
     51 CB        -49.9600  -26.8169    9.9886 C.3       7 UNK        -0.1988 
     52 N         -48.6595  -27.2557   12.0116 N.am      7 UNK        -0.4454 
     53 C         -48.4091  -27.6623   13.2623 C.2       7 UNK         0.5027 
     54 O         -49.2613  -27.7158   14.1484 O.2       7 UNK        -0.5083 
     55 CA        -46.9472  -28.0254   13.5877 C.3       6 UNK         0.0844 
     56 C56       -46.5651  -29.4236   13.0350 C.3       14 UNK        -0.0967 
     57 S57       -46.3275  -29.4883   11.2169 S.3       14 UNK        -0.2604 
     58 C58       -47.2684  -30.9788   10.7515 C.3       14 UNK         0.0134 
     59 N         -46.0098  -26.9857   13.1582 N.am      6 UNK        -0.4116 
     60 C         -46.0362  -25.7012   13.5401 C.2       5 UNK         0.5034 
     61 O         -46.7979  -25.2510   14.3954 O.2       5 UNK        -0.5045 
     62 CA        -45.0895  -24.7387   12.7995 C.3       5 UNK         0.0224 
     63 CB        -43.7649  -24.5974   13.5654 C.3       5 UNK        -0.1978 
     64 N         -44.8098  -25.1069   11.4042 N.am      5 UNK        -0.4737 
     65 C         -45.7304  -25.3184   10.4523 C.2       4 UNK         0.5027 
     66 O         -46.9430  -25.2525   10.6639 O.2       4 UNK        -0.5211 
     67 CA        -45.2019  -25.6683    9.0445 C.3       4 UNK         0.0297 
     68 CB        -44.0060  -26.6399    9.0994 C.3       4 UNK        -0.1993 
     69 N         -46.2356  -26.2713    8.1976 N.am      4 UNK        -0.4486 
     70 C         -47.2496  -25.6713    7.5595 C.2       3 UNK         0.4961 
     71 O         -48.0673  -26.3262    6.9119 O.2       3 UNK        -0.5105 
     72 CA        -47.3953  -24.1379    7.5884 C.3       3 UNK         0.0299 
     73 CB        -46.7136  -23.5055    6.3644 C.3       3 UNK        -0.1972 
     74 N         -48.8217  -23.8350    7.5516 N.am      3 UNK        -0.4305 
     75 C         -49.4961  -23.0808    8.4232 C.2       2 UNK         0.5006 
     76 O         -48.9580  -22.3871    9.2853 O.2       2 UNK        -0.5106 
     77 CA        -51.0365  -23.1097    8.3543 C.3       2 UNK         0.0296 
     78 CB        -51.5744  -21.9488    7.4948 C.3       2 UNK        -0.2002 
     79 N         -51.6295  -24.3980    7.9529 N.am      2 UNK        -0.4032 
     80 C         -51.5715  -25.0171    6.7630 C.2       1 UNK         0.5000 
     81 O         -50.9535  -24.5824    5.7880 O.2       1 UNK        -0.5238 
     82 H82       -56.1051  -26.0457    4.2827 H         1 UNK         0.0889 
     83 H83       -54.6416  -26.4751    3.3950 H         1 UNK         0.0889 
     84 H84       -55.1122  -24.7814    3.5521 H         1 UNK         0.0889 
     85 H85       -52.9397  -26.9999    4.7469 H         1 UNK         0.3028 
     86 H86       -52.9024  -26.5185    7.5458 H         1 UNK         0.0864 
     87 H87       -50.5552  -27.4744    7.3913 H         1 UNK         0.0720 
     88 H88       -50.6790  -27.4643    5.6553 H         1 UNK         0.0720 
     89 H89       -49.7881  -29.9234    6.5158 H         1 UNK         0.0814 
     90 H90       -50.8945  -31.2522    6.7506 H         1 UNK         0.0814 
     91 H91       -48.2417  -30.5981    8.2412 H         1 UNK         0.1469 
     92 H92       -49.4776  -30.7194   12.3405 H         1 UNK         0.1381 
     93 H93       -52.3764  -30.0577    9.2569 H         1 UNK         0.1206 
     94 H94       -52.5113  -29.2478   11.9899 H         1 UNK         0.0813 
     95 H95       -51.7436  -30.5005   12.9481 H         1 UNK         0.0813 
     96 H96       -54.2069  -30.4191   13.7490 H         1 UNK         0.0638 
     97 H97       -55.1715  -31.7991   13.3083 H         1 UNK         0.0638 
     98 H98       -56.2193  -30.3894   11.4359 H         1 UNK         0.0568 
     99 H99       -57.4609  -31.8057   13.1748 H         1 UNK         0.3450 
    100 H100      -58.5298  -30.8538   14.1712 H         1 UNK         0.3450 
    101 H101      -55.0217  -28.0425   12.8215 H         1 UNK         0.2987 
    102 H102      -53.4250  -26.9788   10.2818 H         1 UNK         0.0766 
    103 H103      -54.5539  -24.9261    9.4034 H         1 UNK         0.0798 
    104 H104      -56.1252  -25.6169    9.7998 H         1 UNK         0.0798 
    105 H105      -55.1164  -26.3714    8.5827 H         1 UNK         0.0798 
    106 H106      -53.2662  -25.8287   12.1463 H         1 UNK         0.3198 
    107 H107      -54.1955  -23.8225   13.6088 H         1 UNK         0.0843 
    108 H108      -56.3152  -25.2756   15.2810 H         1 UNK         0.0831 
    109 H109      -56.5205  -23.7348   14.4605 H         1 UNK         0.0831 
    110 H110      -55.3968  -23.8631   15.8036 H         1 UNK         0.0831 
    111 H111      -52.7298  -25.0036   14.7733 H         1 UNK         0.3133 
    112 H112      -52.7579  -27.4742   16.8900 H         1 UNK         0.0566 
    113 H113      -51.1707  -29.1006   15.8359 H         1 UNK         0.0814 
    114 H114      -52.8360  -29.4190   15.3856 H         1 UNK         0.0814 
    115 H115      -51.7569  -28.6147   14.2474 H         1 UNK         0.0814 
    116 H116      -50.5539  -26.6582   15.1574 H         1 UNK         0.3091 
    117 H117      -49.8510  -23.7294   17.1192 H         1 UNK         0.0702 
    118 H118      -47.6473  -24.8547   17.1497 H         1 UNK         0.0785 
    119 H119      -48.3754  -26.3736   16.6337 H         1 UNK         0.0785 
    120 H120      -48.7593  -25.7012   18.2142 H         1 UNK         0.0785 
    121 H121      -48.5998  -24.7429   14.7790 H         1 UNK         0.2998 
    122 H122      -50.5102  -22.7994   12.4144 H         1 UNK         0.0697 
    123 H123      -47.6347  -22.8284   13.4787 H         1 UNK         0.0825 
    124 H124      -48.6589  -21.4219   13.2549 H         1 UNK         0.0825 
    125 H125      -48.0978  -22.3227   11.8552 H         1 UNK         0.0825 
    126 H126      -48.5244  -24.7936   11.9911 H         1 UNK         0.3029 
    127 H127      -50.6939  -27.6123   11.8382 H         1 UNK         0.0897 
    128 H128      -49.3713  -25.9817    9.6100 H         1 UNK         0.0792 
    129 H129      -50.9734  -26.7137    9.6036 H         1 UNK         0.0792 
    130 H130      -49.5427  -27.7319    9.5712 H         1 UNK         0.0792 
    131 H131      -47.8862  -27.1680   11.3646 H         1 UNK         0.3086 
    132 H132      -46.8763  -28.0753   14.6764 H         1 UNK         0.0583 
    133 H133      -45.6290  -29.7438   13.4952 H         1 UNK         0.1020 
    134 H134      -47.3016  -30.1656   13.3481 H         1 UNK         0.1020 
    135 H135      -46.7468  -31.4624    9.9241 H         1 UNK         0.0694 
    136 H136      -47.2569  -31.7038   11.5665 H         1 UNK         0.0694 
    137 H137      -45.3592  -27.2520   12.4342 H         1 UNK         0.2989 
    138 H138      -45.5767  -23.7624   12.7803 H         1 UNK         0.1055 
    139 H139      -43.9423  -24.3023   14.6009 H         1 UNK         0.0806 
    140 H140      -43.1268  -23.8340   13.1198 H         1 UNK         0.0806 
    141 H141      -43.2065  -25.5343   13.5850 H         1 UNK         0.0806 
    142 H142      -43.8351  -25.1787   11.1489 H         1 UNK         0.3061 
    143 H143      -44.8587  -24.7424    8.5800 H         1 UNK         0.0734 
    144 H144      -44.2495  -27.5518    9.6468 H         1 UNK         0.0832 
    145 H145      -43.6878  -26.9308    8.0979 H         1 UNK         0.0832 
    146 H146      -43.1375  -26.1880    9.5795 H         1 UNK         0.0832 
    147 H147      -46.2119  -27.2789    8.1559 H         1 UNK         0.3156 
    148 H148      -46.9557  -23.7220    8.4936 H         1 UNK         0.0589 
    149 H149      -47.1242  -23.8910    5.4301 H         1 UNK         0.0808 
    150 H150      -46.8350  -22.4222    6.3610 H         1 UNK         0.0808 
    151 H151      -45.6429  -23.7131    6.3617 H         1 UNK         0.0808 
    152 H152      -49.3569  -24.3648    6.8683 H         1 UNK         0.3098 
    153 H153      -51.3847  -22.9432    9.3753 H         1 UNK         0.0720 
    154 H154      -52.6642  -21.9243    7.4989 H         1 UNK         0.0791 
    155 H155      -51.2443  -22.0203    6.4581 H         1 UNK         0.0791 
    156 H156      -51.2263  -20.9887    7.8782 H         1 UNK         0.0791 
    157 H157      -52.1599  -24.8498    8.6833 H         1 UNK         0.3028 
@<TRIPOS>BOND
     1    1    2 1    
     2    1   82 1    
     3    1   83 1    
     4    1   84 1    
     5    2    3 2    
     6    2    4 am   BACKBONE|DICT|INTERRES
     7    4    5 1    
     8    4   85 1    
     9    5    6 1    
    10    5   80 1    
    11    5   86 1    
    12    6    7 1    
    13    6   87 1    
    14    6   88 1    
    15    7    8 1    
    16    8    9 1    
    17    8   89 1    
    18    8   90 1    
    19    9   10 ar   
    20    9   14 ar   
    21   10   11 ar   
    22   10   91 1    
    23   11   12 ar   
    24   11   58 1    
    25   12   13 ar   
    26   12   92 1    
    27   13   14 ar   
    28   13   15 1    
    29   14   93 1    
    30   15   16 1    
    31   15   94 1    
    32   15   95 1    
    33   16   17 1    
    34   17   18 1    
    35   17   96 1    
    36   17   97 1    
    37   18   19 1    
    38   18   22 1    
    39   18   98 1    
    40   19   20 am   BACKBONE|DICT|INTERRES
    41   19   21 2    
    42   20   99 1    
    43   20  100 1    
    44   22   23 am   BACKBONE|DICT|INTERRES
    45   22  101 1    
    46   23   24 2    
    47   23   25 1    
    48   25   26 1    
    49   25   27 1    
    50   25  102 1    
    51   26  103 1    
    52   26  104 1    
    53   26  105 1    
    54   27   28 am   BACKBONE|DICT|INTERRES
    55   27  106 1    
    56   28   29 2    
    57   28   30 1    
    58   30   31 1    
    59   30   32 1    
    60   30  107 1    
    61   31  108 1    
    62   31  109 1    
    63   31  110 1    
    64   32   33 am   BACKBONE|DICT|INTERRES
    65   32  111 1    
    66   33   34 2    
    67   33   35 1    
    68   35   36 1    
    69   35   37 1    
    70   35  112 1    
    71   36  113 1    
    72   36  114 1    
    73   36  115 1    
    74   37   38 am   BACKBONE|DICT|INTERRES
    75   37  116 1    
    76   38   39 2    
    77   38   40 1    
    78   40   41 1    
    79   40   42 1    
    80   40  117 1    
    81   41  118 1    
    82   41  119 1    
    83   41  120 1    
    84   42   43 am   BACKBONE|DICT|INTERRES
    85   42  121 1    
    86   43   44 2    
    87   43   45 1    
    88   45   46 1    
    89   45   47 1    
    90   45  122 1    
    91   46  123 1    
    92   46  124 1    
    93   46  125 1    
    94   47   48 am   BACKBONE|DICT|INTERRES
    95   47  126 1    
    96   48   49 2    
    97   48   50 1    
    98   50   51 1    
    99   50   52 1    
   100   50  127 1    
   101   51  128 1    
   102   51  129 1    
   103   51  130 1    
   104   52   53 am   BACKBONE|DICT|INTERRES
   105   52  131 1    
   106   53   54 2    
   107   53   55 1    
   108   55   56 1    
   109   55   59 1    
   110   55  132 1    
   111   56   57 1    
   112   56  133 1    
   113   56  134 1    
   114   57   58 1    
   115   58  135 1    
   116   58  136 1    
   117   59   60 am   BACKBONE|DICT|INTERRES
   118   59  137 1    
   119   60   61 2    
   120   60   62 1    
   121   62   63 1    
   122   62   64 1    
   123   62  138 1    
   124   63  139 1    
   125   63  140 1    
   126   63  141 1    
   127   64   65 am   BACKBONE|DICT|INTERRES
   128   64  142 1    
   129   65   66 2    
   130   65   67 1    
   131   67   68 1    
   132   67   69 1    
   133   67  143 1    
   134   68  144 1    
   135   68  145 1    
   136   68  146 1    
   137   69   70 am   BACKBONE|DICT|INTERRES
   138   69  147 1    
   139   70   71 2    
   140   70   72 1    
   141   72   73 1    
   142   72   74 1    
   143   72  148 1    
   144   73  149 1    
   145   73  150 1    
   146   73  151 1    
   147   74   75 am   BACKBONE|DICT|INTERRES
   148   74  152 1    
   149   75   76 2    
   150   75   77 1    
   151   77   78 1    
   152   77   79 1    
   153   77  153 1    
   154   78  154 1    
   155   78  155 1    
   156   78  156 1    
   157   79   80 am   BACKBONE|DICT|INTERRES
   158   79  157 1    
   159   80   81 2    
@<TRIPOS>SUBSTRUCTURE
     1 UNK         1 GROUP             0       ****    0 ROOT    
