@<TRIPOS>MOLECULE
3R207
157   159    1
SMALL
USER_CHARGES


@<TRIPOS>ATOM
      1 CA        -44.0685  -29.5119    6.2397 C.3       0 UNK        -0.1975 
      2 C         -45.5312  -29.6981    5.8643 C.2       0 UNK         0.4852 
      3 O         -45.8391  -29.9016    4.6898 O.2       0 UNK        -0.5216 
      4 N         -46.4303  -29.6316    6.8567 N.am      1 UNK        -0.4461 
      5 CA        -47.8854  -29.7672    6.7021 C.3       1 UNK         0.0864 
      6 C6        -48.6053  -29.8565    8.0823 C.3       14 UNK        -0.0898 
      7 S7        -49.2975  -31.5110    8.4197 S.3       14 UNK        -0.2598 
      8 C8        -50.8397  -31.5148    7.4449 C.3       14 UNK         0.0286 
      9 C9        -51.8950  -30.5704    8.0048 C.ar      14 UNK        -0.0844 
     10 C10       -51.9784  -29.2619    7.5293 C.ar      14 UNK        -0.0881 
     11 C11       -52.9289  -28.3723    8.0311 C.ar      14 UNK        -0.0643 
     12 C12       -53.8402  -28.8150    8.9953 C.ar      14 UNK        -0.0930 
     13 C13       -53.8029  -30.1405    9.4464 C.ar      14 UNK        -0.0827 
     14 C14       -52.8167  -31.0075    8.9602 C.ar      14 UNK        -0.1249 
     15 C15       -54.8750  -30.6679   10.3904 C.3       14 UNK         0.0141 
     16 S16       -54.2289  -31.1033   12.0377 S.3       14 UNK        -0.2313 
     17 C17       -54.0067  -29.5095   12.9076 C.3       14 UNK        -0.0915 
     18 CA        -55.0729  -28.3859   12.7481 C.3       13 UNK         0.0968 
     19 C         -56.5228  -28.7694   13.1892 C.2       13 UNK         0.5732 
     20 N         -57.2776  -27.8969   13.8485 N.am      13 UNK        -0.7310 
     21 O         -57.0071  -29.8597   12.9005 O.2       13 UNK        -0.5035 
     22 N         -54.6006  -27.1781   13.4374 N.am      13 UNK        -0.4233 
     23 C         -54.4036  -25.9750   12.8840 C.2       13 UNK         0.4989 
     24 O         -54.5002  -25.7556   11.6751 O.2       13 UNK        -0.4996 
     25 CA        -54.0555  -24.8151   13.8466 C.3       12 UNK         0.0216 
     26 CB        -54.4747  -23.4361   13.2947 C.3       12 UNK        -0.1964 
     27 N         -54.5543  -25.0080   15.2148 N.am      12 UNK        -0.4276 
     28 C         -55.8311  -25.1765   15.5953 C.2       12 UNK         0.5020 
     29 O         -56.7836  -25.1293   14.8150 O.2       12 UNK        -0.5489 
     30 CA        -56.0805  -25.5179   17.0813 C.3       11 UNK         0.0294 
     31 CB        -57.4106  -26.2710   17.2973 C.3       11 UNK        -0.2019 
     32 N         -54.9754  -26.2522   17.7154 N.am      11 UNK        -0.4493 
     33 C         -54.4310  -27.4070   17.3045 C.2       11 UNK         0.4932 
     34 O         -54.8000  -28.0413   16.3135 O.2       11 UNK        -0.5029 
     35 CA        -53.2202  -27.9042   18.1105 C.3       10 UNK         0.0280 
     36 CB        -53.5616  -29.2066   18.8519 C.3       10 UNK        -0.1976 
     37 N         -52.0492  -28.1209   17.2562 N.am      10 UNK        -0.4242 
     38 C         -51.4911  -27.2030   16.4538 C.2       10 UNK         0.5072 
     39 O         -51.8935  -26.0395   16.3545 O.2       10 UNK        -0.5224 
     40 CA        -50.3090  -27.6946   15.6028 C.3       9 UNK         0.0343 
     41 CB        -50.8090  -28.5439   14.4243 C.3       9 UNK        -0.2003 
     42 N         -49.5253  -26.5744   15.0815 N.am      9 UNK        -0.4272 
     43 C         -48.5726  -25.9358   15.7755 C.2       9 UNK         0.4988 
     44 O         -48.2283  -26.2630   16.9129 O.2       9 UNK        -0.5108 
     45 CA        -47.8483  -24.7545   15.1004 C.3       8 UNK         0.0248 
     46 CB        -46.4606  -25.1975   14.6074 C.3       8 UNK        -0.2001 
     47 N         -48.5817  -24.1553   13.9836 N.am      8 UNK        -0.4140 
     48 C         -49.7044  -23.4343   14.1022 C.2       8 UNK         0.5028 
     49 O         -50.2116  -23.1285   15.1815 O.2       8 UNK        -0.5428 
     50 CA        -50.3874  -22.9787   12.7994 C.3       7 UNK         0.0264 
     51 CB        -49.8725  -21.5934   12.3795 C.3       7 UNK        -0.1988 
     52 N         -50.2521  -23.9063   11.6696 N.am      7 UNK        -0.4454 
     53 C         -50.6497  -25.1896   11.6605 C.2       7 UNK         0.5027 
     54 O         -51.0756  -25.7843   12.6462 O.2       7 UNK        -0.5083 
     55 CA        -50.5125  -25.9363   10.3236 C.3       6 UNK         0.0844 
     56 C56       -51.5334  -25.3660    9.3047 C.3       14 UNK        -0.0967 
     57 S57       -51.4043  -26.0787    7.6361 S.3       14 UNK        -0.2604 
     58 C58       -52.9938  -26.9584    7.4721 C.3       14 UNK         0.0134 
     59 N         -49.1117  -25.8651    9.8975 N.am      6 UNK        -0.4116 
     60 C         -48.1289  -26.5784   10.4731 C.2       5 UNK         0.5034 
     61 O         -48.3279  -27.5121   11.2494 O.2       5 UNK        -0.5045 
     62 CA        -46.6734  -26.1687   10.1841 C.3       5 UNK         0.0224 
     63 CB        -46.0008  -27.1363    9.2020 C.3       5 UNK        -0.1978 
     64 N         -46.5485  -24.7948    9.6928 N.am      5 UNK        -0.4737 
     65 C         -46.6726  -23.7169   10.4805 C.2       4 UNK         0.5027 
     66 O         -46.8808  -23.7833   11.6903 O.2       4 UNK        -0.5211 
     67 CA        -46.6042  -22.3348    9.8101 C.3       4 UNK         0.0297 
     68 CB        -45.1596  -21.8121    9.8091 C.3       4 UNK        -0.1993 
     69 N         -47.1319  -22.3155    8.4444 N.am      4 UNK        -0.4486 
     70 C         -48.3787  -22.6551    8.0901 C.2       3 UNK         0.4961 
     71 O         -49.2385  -23.0201    8.8945 O.2       3 UNK        -0.5105 
     72 CA        -48.7164  -22.6133    6.5864 C.3       3 UNK         0.0299 
     73 CB        -47.6888  -21.8320    5.7358 C.3       3 UNK        -0.1972 
     74 N         -48.9215  -23.9486    6.0113 N.am      3 UNK        -0.4305 
     75 C         -48.0990  -25.0056    6.0849 C.2       2 UNK         0.5006 
     76 O         -47.0455  -25.0316    6.7285 O.2       2 UNK        -0.5106 
     77 CA        -48.5062  -26.2352    5.2659 C.3       2 UNK         0.0296 
     78 CB        -47.9510  -26.1456    3.8330 C.3       2 UNK        -0.2002 
     79 N         -47.9916  -27.4294    5.9268 N.am      2 UNK        -0.4032 
     80 C         -48.5094  -28.6596    5.8218 C.2       1 UNK         0.5000 
     81 O         -49.4458  -28.9431    5.0728 O.2       1 UNK        -0.5238 
     82 H82       -43.9393  -29.3292    7.3064 H         1 UNK         0.0889 
     83 H83       -43.6480  -28.6649    5.6983 H         1 UNK         0.0889 
     84 H84       -43.4976  -30.4020    5.9764 H         1 UNK         0.0889 
     85 H85       -46.0999  -29.5139    7.8027 H         1 UNK         0.3028 
     86 H86       -48.0440  -30.6992    6.1549 H         1 UNK         0.0864 
     87 H87       -49.3913  -29.1107    8.2064 H         1 UNK         0.0720 
     88 H88       -47.9128  -29.6379    8.8962 H         1 UNK         0.0720 
     89 H89       -51.2353  -32.5313    7.4247 H         1 UNK         0.0814 
     90 H90       -50.6155  -31.2612    6.4076 H         1 UNK         0.0814 
     91 H91       -51.2968  -28.9233    6.7642 H         1 UNK         0.1469 
     92 H92       -54.6004  -28.1390    9.3616 H         1 UNK         0.1381 
     93 H93       -52.7828  -32.0304    9.3102 H         1 UNK         0.1206 
     94 H94       -55.7128  -29.9764   10.4706 H         1 UNK         0.0813 
     95 H95       -55.2963  -31.5731    9.9510 H         1 UNK         0.0813 
     96 H96       -53.8684  -29.7338   13.9668 H         1 UNK         0.0638 
     97 H97       -53.0490  -29.1253   12.5563 H         1 UNK         0.0638 
     98 H98       -55.1572  -28.1615   11.6864 H         1 UNK         0.0568 
     99 H99       -56.9455  -26.9659   14.0752 H         1 UNK         0.3450 
    100 H100      -58.2127  -28.1671   14.1061 H         1 UNK         0.3450 
    101 H101      -54.5488  -27.2681   14.4472 H         1 UNK         0.2987 
    102 H102      -52.9711  -24.8096   13.9423 H         1 UNK         0.0766 
    103 H103      -53.9884  -23.2324   12.3399 H         1 UNK         0.0798 
    104 H104      -54.1933  -22.6339   13.9768 H         1 UNK         0.0798 
    105 H105      -55.5510  -23.3769   13.1304 H         1 UNK         0.0798 
    106 H106      -53.8279  -25.1358   15.9130 H         1 UNK         0.3198 
    107 H107      -56.1540  -24.5602   17.5990 H         1 UNK         0.0843 
    108 H108      -57.5868  -26.4704   18.3542 H         1 UNK         0.0831 
    109 H109      -57.4240  -27.2255   16.7701 H         1 UNK         0.0831 
    110 H110      -58.2579  -25.6872   16.9352 H         1 UNK         0.0831 
    111 H111      -54.5674  -25.8023   18.5243 H         1 UNK         0.3133 
    112 H112      -52.9482  -27.1493   18.8510 H         1 UNK         0.0566 
    113 H113      -52.7311  -29.5416   19.4736 H         1 UNK         0.0814 
    114 H114      -53.8105  -30.0118   18.1591 H         1 UNK         0.0814 
    115 H115      -54.4209  -29.0669   19.5094 H         1 UNK         0.0814 
    116 H116      -51.6717  -29.0572   17.2480 H         1 UNK         0.3091 
    117 H117      -49.6650  -28.3178   16.2270 H         1 UNK         0.0702 
    118 H118      -49.9907  -28.8386   13.7666 H         1 UNK         0.0785 
    119 H119      -51.5367  -27.9971   13.8266 H         1 UNK         0.0785 
    120 H120      -51.2940  -29.4572   14.7704 H         1 UNK         0.0785 
    121 H121      -49.8262  -26.2002   14.1874 H         1 UNK         0.2998 
    122 H122      -47.7087  -23.9838   15.8612 H         1 UNK         0.0697 
    123 H123      -46.5355  -25.9420   13.8136 H         1 UNK         0.0825 
    124 H124      -45.8774  -25.6388   15.4169 H         1 UNK         0.0825 
    125 H125      -45.8887  -24.3533   14.2217 H         1 UNK         0.0825 
    126 H126      -48.1693  -24.2583   13.0601 H         1 UNK         0.3029 
    127 H127      -51.4545  -22.8931   13.0128 H         1 UNK         0.0897 
    128 H128      -50.0347  -20.8613   13.1719 H         1 UNK         0.0792 
    129 H129      -50.3862  -21.2276   11.4901 H         1 UNK         0.0792 
    130 H130      -48.8033  -21.6113   12.1685 H         1 UNK         0.0792 
    131 H131      -49.8865  -23.5150   10.8068 H         1 UNK         0.3086 
    132 H132      -50.7693  -26.9851   10.4917 H         1 UNK         0.0583 
    133 H133      -52.5457  -25.5201    9.6837 H         1 UNK         0.1020 
    134 H134      -51.4308  -24.2858    9.1956 H         1 UNK         0.1020 
    135 H135      -53.7948  -26.3814    7.9366 H         1 UNK         0.0694 
    136 H136      -53.2425  -27.0213    6.4119 H         1 UNK         0.0694 
    137 H137      -48.8698  -25.0901    9.2932 H         1 UNK         0.2989 
    138 H138      -46.1340  -26.2378   11.1321 H         1 UNK         0.1055 
    139 H139      -46.5095  -27.1453    8.2419 H         1 UNK         0.0806 
    140 H140      -44.9589  -26.8659    9.0287 H         1 UNK         0.0806 
    141 H141      -46.0097  -28.1529    9.5966 H         1 UNK         0.0806 
    142 H142      -46.4422  -24.6692    8.6905 H         1 UNK         0.3061 
    143 H143      -47.2132  -21.6512   10.4040 H         1 UNK         0.0734 
    144 H144      -44.5031  -22.4390    9.2042 H         1 UNK         0.0832 
    145 H145      -45.1044  -20.7941    9.4231 H         1 UNK         0.0832 
    146 H146      -44.7516  -21.7949   10.8208 H         1 UNK         0.0832 
    147 H147      -46.4867  -22.0591    7.7113 H         1 UNK         0.3156 
    148 H148      -49.6719  -22.0925    6.5089 H         1 UNK         0.0589 
    149 H149      -48.0368  -21.7274    4.7080 H         1 UNK         0.0808 
    150 H150      -47.5383  -20.8225    6.1213 H         1 UNK         0.0808 
    151 H151      -46.7178  -22.3278    5.6995 H         1 UNK         0.0808 
    152 H152      -49.7824  -24.0612    5.4939 H         1 UNK         0.3098 
    153 H153      -49.5963  -26.2868    5.2300 H         1 UNK         0.0720 
    154 H154      -48.3137  -25.2507    3.3258 H         1 UNK         0.0791 
    155 H155      -48.2573  -27.0033    3.2339 H         1 UNK         0.0791 
    156 H156      -46.8608  -26.1069    3.8274 H         1 UNK         0.0791 
    157 H157      -47.2185  -27.2566    6.5545 H         1 UNK         0.3028 
@<TRIPOS>BOND
     1    1    2 1    
     2    1   82 1    
     3    1   83 1    
     4    1   84 1    
     5    2    3 2    
     6    2    4 am   BACKBONE|DICT|INTERRES
     7    4    5 1    
     8    4   85 1    
     9    5    6 1    
    10    5   80 1    
    11    5   86 1    
    12    6    7 1    
    13    6   87 1    
    14    6   88 1    
    15    7    8 1    
    16    8    9 1    
    17    8   89 1    
    18    8   90 1    
    19    9   10 ar   
    20    9   14 ar   
    21   10   11 ar   
    22   10   91 1    
    23   11   12 ar   
    24   11   58 1    
    25   12   13 ar   
    26   12   92 1    
    27   13   14 ar   
    28   13   15 1    
    29   14   93 1    
    30   15   16 1    
    31   15   94 1    
    32   15   95 1    
    33   16   17 1    
    34   17   18 1    
    35   17   96 1    
    36   17   97 1    
    37   18   19 1    
    38   18   22 1    
    39   18   98 1    
    40   19   20 am   BACKBONE|DICT|INTERRES
    41   19   21 2    
    42   20   99 1    
    43   20  100 1    
    44   22   23 am   BACKBONE|DICT|INTERRES
    45   22  101 1    
    46   23   24 2    
    47   23   25 1    
    48   25   26 1    
    49   25   27 1    
    50   25  102 1    
    51   26  103 1    
    52   26  104 1    
    53   26  105 1    
    54   27   28 am   BACKBONE|DICT|INTERRES
    55   27  106 1    
    56   28   29 2    
    57   28   30 1    
    58   30   31 1    
    59   30   32 1    
    60   30  107 1    
    61   31  108 1    
    62   31  109 1    
    63   31  110 1    
    64   32   33 am   BACKBONE|DICT|INTERRES
    65   32  111 1    
    66   33   34 2    
    67   33   35 1    
    68   35   36 1    
    69   35   37 1    
    70   35  112 1    
    71   36  113 1    
    72   36  114 1    
    73   36  115 1    
    74   37   38 am   BACKBONE|DICT|INTERRES
    75   37  116 1    
    76   38   39 2    
    77   38   40 1    
    78   40   41 1    
    79   40   42 1    
    80   40  117 1    
    81   41  118 1    
    82   41  119 1    
    83   41  120 1    
    84   42   43 am   BACKBONE|DICT|INTERRES
    85   42  121 1    
    86   43   44 2    
    87   43   45 1    
    88   45   46 1    
    89   45   47 1    
    90   45  122 1    
    91   46  123 1    
    92   46  124 1    
    93   46  125 1    
    94   47   48 am   BACKBONE|DICT|INTERRES
    95   47  126 1    
    96   48   49 2    
    97   48   50 1    
    98   50   51 1    
    99   50   52 1    
   100   50  127 1    
   101   51  128 1    
   102   51  129 1    
   103   51  130 1    
   104   52   53 am   BACKBONE|DICT|INTERRES
   105   52  131 1    
   106   53   54 2    
   107   53   55 1    
   108   55   56 1    
   109   55   59 1    
   110   55  132 1    
   111   56   57 1    
   112   56  133 1    
   113   56  134 1    
   114   57   58 1    
   115   58  135 1    
   116   58  136 1    
   117   59   60 am   BACKBONE|DICT|INTERRES
   118   59  137 1    
   119   60   61 2    
   120   60   62 1    
   121   62   63 1    
   122   62   64 1    
   123   62  138 1    
   124   63  139 1    
   125   63  140 1    
   126   63  141 1    
   127   64   65 am   BACKBONE|DICT|INTERRES
   128   64  142 1    
   129   65   66 2    
   130   65   67 1    
   131   67   68 1    
   132   67   69 1    
   133   67  143 1    
   134   68  144 1    
   135   68  145 1    
   136   68  146 1    
   137   69   70 am   BACKBONE|DICT|INTERRES
   138   69  147 1    
   139   70   71 2    
   140   70   72 1    
   141   72   73 1    
   142   72   74 1    
   143   72  148 1    
   144   73  149 1    
   145   73  150 1    
   146   73  151 1    
   147   74   75 am   BACKBONE|DICT|INTERRES
   148   74  152 1    
   149   75   76 2    
   150   75   77 1    
   151   77   78 1    
   152   77   79 1    
   153   77  153 1    
   154   78  154 1    
   155   78  155 1    
   156   78  156 1    
   157   79   80 am   BACKBONE|DICT|INTERRES
   158   79  157 1    
   159   80   81 2    
@<TRIPOS>SUBSTRUCTURE
     1 UNK         1 GROUP             0       ****    0 ROOT    
