@<TRIPOS>MOLECULE
3R207
157   159    1
SMALL
USER_CHARGES


@<TRIPOS>ATOM
      1 CA        -46.9253  -26.0035    5.1754 C.3       0 UNK        -0.1975 
      2 C         -47.5013  -27.0092    6.1604 C.2       0 UNK         0.4852 
      3 O         -46.8755  -28.0422    6.4081 O.2       0 UNK        -0.5216 
      4 N         -48.6760  -26.7026    6.7317 N.am      1 UNK        -0.4461 
      5 CA        -49.4101  -27.4920    7.7306 C.3       1 UNK         0.0864 
      6 C6        -49.9911  -28.8222    7.1664 C.3       14 UNK        -0.0898 
      7 S7        -51.0816  -28.5788    5.7264 S.3       14 UNK        -0.2598 
      8 C8        -52.7276  -28.9677    6.4127 C.3       14 UNK         0.0286 
      9 C9        -53.3284  -27.8319    7.2348 C.ar      14 UNK        -0.0844 
     10 C10       -53.3347  -26.5247    6.7373 C.ar      14 UNK        -0.0881 
     11 C11       -53.9351  -25.4916    7.4579 C.ar      14 UNK        -0.0643 
     12 C12       -54.5444  -25.7756    8.6825 C.ar      14 UNK        -0.0930 
     13 C13       -54.5641  -27.0768    9.1946 C.ar      14 UNK        -0.0827 
     14 C14       -53.9443  -28.1012    8.4630 C.ar      14 UNK        -0.1249 
     15 C15       -55.2985  -27.3001   10.5195 C.3       14 UNK         0.0141 
     16 S16       -55.3299  -29.0064   11.1708 S.3       14 UNK        -0.2313 
     17 C17       -56.5799  -28.8173   12.4923 C.3       14 UNK        -0.0915 
     18 CA        -56.6359  -29.9747   13.5270 C.3       13 UNK         0.0968 
     19 C         -57.0041  -31.3399   12.8716 C.2       13 UNK         0.5732 
     20 N         -56.1316  -32.3411   12.8826 N.am      13 UNK        -0.7310 
     21 O         -58.1096  -31.4951   12.3576 O.2       13 UNK        -0.5035 
     22 N         -55.4585  -29.9893   14.4130 N.am      13 UNK        -0.4233 
     23 C         -55.4048  -30.6286   15.5916 C.2       13 UNK         0.4989 
     24 O         -56.3563  -31.2362   16.0840 O.2       13 UNK        -0.4996 
     25 CA        -54.0764  -30.5855   16.3604 C.3       12 UNK         0.0216 
     26 CB        -53.0216  -31.4722   15.6758 C.3       12 UNK        -0.1964 
     27 N         -53.5699  -29.2173   16.4658 N.am      12 UNK        -0.4276 
     28 C         -53.5579  -28.4785   17.5845 C.2       12 UNK         0.5020 
     29 O         -53.9612  -28.8844   18.6757 O.2       12 UNK        -0.5489 
     30 CA        -52.9928  -27.0454   17.4926 C.3       11 UNK         0.0294 
     31 CB        -51.5470  -27.0049   18.0131 C.3       11 UNK        -0.2019 
     32 N         -53.0246  -26.4875   16.1397 N.am      11 UNK        -0.4493 
     33 C         -54.1408  -26.1483   15.4807 C.2       11 UNK         0.4932 
     34 O         -55.2624  -26.1571   15.9880 O.2       11 UNK        -0.5029 
     35 CA        -53.9951  -25.7749   13.9942 C.3       10 UNK         0.0280 
     36 CB        -53.9987  -24.2490   13.8181 C.3       10 UNK        -0.1976 
     37 N         -52.8150  -26.3399   13.3256 N.am      10 UNK        -0.4242 
     38 C         -52.5005  -27.6417   13.2479 C.2       10 UNK         0.5072 
     39 O         -53.1682  -28.5377   13.7609 O.2       10 UNK        -0.5224 
     40 CA        -51.2028  -28.0137   12.5209 C.3       9 UNK         0.0343 
     41 CB        -51.4567  -28.1992   11.0192 C.3       9 UNK        -0.2003 
     42 N         -50.1366  -27.0359   12.7465 N.am      9 UNK        -0.4272 
     43 C         -49.4711  -26.9117   13.9050 C.2       9 UNK         0.4988 
     44 O         -49.6531  -27.6416   14.8794 O.2       9 UNK        -0.5108 
     45 CA        -48.4495  -25.7667   14.0074 C.3       8 UNK         0.0248 
     46 CB        -47.0997  -26.1656   13.3905 C.3       8 UNK        -0.2001 
     47 N         -48.9344  -24.5279   13.3954 N.am      8 UNK        -0.4140 
     48 C         -49.9158  -23.7752   13.9120 C.2       8 UNK         0.5028 
     49 O         -50.4759  -24.0190   14.9813 O.2       8 UNK        -0.5428 
     50 CA        -50.3653  -22.5522   13.0927 C.3       7 UNK         0.0264 
     51 CB        -49.5232  -21.3213   13.4646 C.3       7 UNK        -0.1988 
     52 N         -50.3363  -22.7293   11.6360 N.am      7 UNK        -0.4454 
     53 C         -50.9510  -23.6950   10.9391 C.2       7 UNK         0.5027 
     54 O         -51.5473  -24.6318   11.4686 O.2       7 UNK        -0.5083 
     55 CA        -50.9045  -23.6294    9.3977 C.3       6 UNK         0.0844 
     56 C56       -52.2127  -23.0111    8.8402 C.3       14 UNK        -0.0967 
     57 S57       -52.3553  -23.2380    7.0348 S.3       14 UNK        -0.2604 
     58 C58       -53.9633  -24.0798    6.8886 C.3       14 UNK         0.0134 
     59 N         -49.6854  -23.0143    8.8491 N.am      6 UNK        -0.4116 
     60 C         -49.2995  -21.7319    8.8852 C.2       5 UNK         0.5034 
     61 O         -49.9037  -20.8546    9.5041 O.2       5 UNK        -0.5045 
     62 CA        -47.9825  -21.3947    8.1565 C.3       5 UNK         0.0224 
     63 CB        -47.6904  -19.8824    8.1322 C.3       5 UNK        -0.1978 
     64 N         -46.8395  -22.0885    8.7575 N.am      5 UNK        -0.4737 
     65 C         -46.5754  -23.3918    8.6159 C.2       4 UNK         0.5027 
     66 O         -47.2502  -24.1464    7.9103 O.2       4 UNK        -0.5211 
     67 CA        -45.4016  -23.9434    9.4308 C.3       4 UNK         0.0297 
     68 CB        -45.6900  -23.8578   10.9402 C.3       4 UNK        -0.1993 
     69 N         -45.1935  -25.3365    9.0530 N.am      4 UNK        -0.4486 
     70 C         -44.0206  -25.9769    9.0449 C.2       3 UNK         0.4961 
     71 O         -42.9628  -25.4650    9.4166 O.2       3 UNK        -0.5105 
     72 CA        -44.0313  -27.4216    8.5071 C.3       3 UNK         0.0299 
     73 CB        -42.7661  -28.2197    8.8900 C.3       3 UNK        -0.1972 
     74 N         -45.2489  -28.1657    8.8523 N.am      3 UNK        -0.4305 
     75 C         -45.6804  -28.5040   10.0793 C.2       2 UNK         0.5006 
     76 O         -45.0926  -28.2156   11.1228 O.2       2 UNK        -0.5106 
     77 CA        -46.9851  -29.3261   10.1331 C.3       2 UNK         0.0296 
     78 CB        -47.6187  -29.4037   11.5357 C.3       2 UNK        -0.2002 
     79 N         -47.9696  -28.9023    9.1330 N.am      2 UNK        -0.4032 
     80 C         -48.5348  -27.6919    8.9883 C.2       1 UNK         0.5000 
     81 O         -48.3738  -26.7491    9.7666 O.2       1 UNK        -0.5238 
     82 H82       -47.5713  -25.1335    5.0582 H         1 UNK         0.0889 
     83 H83       -46.7942  -26.4665    4.1979 H         1 UNK         0.0889 
     84 H84       -45.9535  -25.6555    5.5246 H         1 UNK         0.0889 
     85 H85       -49.0983  -25.8142    6.5039 H         1 UNK         0.3028 
     86 H86       -50.2550  -26.8779    8.0468 H         1 UNK         0.0864 
     87 H87       -50.5426  -29.3544    7.9438 H         1 UNK         0.0720 
     88 H88       -49.1950  -29.4929    6.8395 H         1 UNK         0.0720 
     89 H89       -52.6691  -29.8883    6.9954 H         1 UNK         0.0814 
     90 H90       -53.4035  -29.1780    5.5829 H         1 UNK         0.0814 
     91 H91       -52.8801  -26.3095    5.7799 H         1 UNK         0.1469 
     92 H92       -55.0260  -24.9799    9.2345 H         1 UNK         0.1381 
     93 H93       -53.9552  -29.1171    8.8300 H         1 UNK         0.1206 
     94 H94       -56.3291  -26.9633   10.3978 H         1 UNK         0.0813 
     95 H95       -54.8469  -26.6532   11.2696 H         1 UNK         0.0813 
     96 H96       -57.5542  -28.7017   12.0141 H         1 UNK         0.0638 
     97 H97       -56.3986  -27.8779   13.0148 H         1 UNK         0.0638 
     98 H98       -57.4838  -29.7472   14.1760 H         1 UNK         0.0568 
     99 H99       -55.2204  -32.2171   13.2915 H         1 UNK         0.3450 
    100 H100      -56.3837  -33.2207   12.4609 H         1 UNK         0.3450 
    101 H101      -54.6302  -29.5086   14.0655 H         1 UNK         0.2987 
    102 H102      -54.2588  -30.9976   17.3552 H         1 UNK         0.0766 
    103 H103      -53.3760  -32.4995   15.5818 H         1 UNK         0.0798 
    104 H104      -52.0981  -31.5011   16.2544 H         1 UNK         0.0798 
    105 H105      -52.7741  -31.1174   14.6746 H         1 UNK         0.0798 
    106 H106      -53.2691  -28.7907   15.5924 H         1 UNK         0.3198 
    107 H107      -53.6065  -26.4100   18.1349 H         1 UNK         0.0843 
    108 H108      -50.8835  -27.6247   17.4084 H         1 UNK         0.0831 
    109 H109      -51.4910  -27.3720   19.0388 H         1 UNK         0.0831 
    110 H110      -51.1514  -25.9889   18.0108 H         1 UNK         0.0831 
    111 H111      -52.1429  -26.4268   15.6483 H         1 UNK         0.3133 
    112 H112      -54.8742  -26.1719   13.4881 H         1 UNK         0.0566 
    113 H113      -53.9691  -23.9684   12.7650 H         1 UNK         0.0814 
    114 H114      -53.1454  -23.7879   14.3151 H         1 UNK         0.0814 
    115 H115      -54.9006  -23.8086   14.2452 H         1 UNK         0.0814 
    116 H116      -52.2333  -25.6844   12.8065 H         1 UNK         0.3091 
    117 H117      -50.8747  -28.9758   12.9208 H         1 UNK         0.0702 
    118 H118      -50.6109  -28.6880   10.5424 H         1 UNK         0.0785 
    119 H119      -51.6448  -27.2522   10.5116 H         1 UNK         0.0785 
    120 H120      -52.3217  -28.8402   10.8474 H         1 UNK         0.0785 
    121 H121      -49.9506  -26.3822   11.9983 H         1 UNK         0.2998 
    122 H122      -48.2830  -25.5746   15.0698 H         1 UNK         0.0697 
    123 H123      -47.1689  -26.3073   12.3119 H         1 UNK         0.0825 
    124 H124      -46.7351  -27.1013   13.8169 H         1 UNK         0.0825 
    125 H125      -46.3385  -25.4091   13.5809 H         1 UNK         0.0825 
    126 H126      -48.5372  -24.2578   12.5085 H         1 UNK         0.3029 
    127 H127      -51.4021  -22.3476   13.3659 H         1 UNK         0.0897 
    128 H128      -48.4791  -21.4432   13.1733 H         1 UNK         0.0792 
    129 H129      -49.5437  -21.1437   14.5410 H         1 UNK         0.0792 
    130 H130      -49.9027  -20.4200   12.9826 H         1 UNK         0.0792 
    131 H131      -49.9414  -21.9668   11.0938 H         1 UNK         0.3086 
    132 H132      -50.8694  -24.6696    9.0694 H         1 UNK         0.0583 
    133 H133      -53.0816  -23.4554    9.3274 H         1 UNK         0.1020 
    134 H134      -52.2702  -21.9445    9.0627 H         1 UNK         0.1020 
    135 H135      -54.7318  -23.4783    7.3768 H         1 UNK         0.0694 
    136 H136      -54.2396  -24.1241    5.8341 H         1 UNK         0.0694 
    137 H137      -49.0417  -23.6566    8.3948 H         1 UNK         0.2989 
    138 H138      -48.0938  -21.7282    7.1219 H         1 UNK         0.1055 
    139 H139      -47.5529  -19.4790    9.1364 H         1 UNK         0.0806 
    140 H140      -48.5123  -19.3335    7.6704 H         1 UNK         0.0806 
    141 H141      -46.7921  -19.6610    7.5555 H         1 UNK         0.0806 
    142 H142      -46.2545  -21.5395    9.3716 H         1 UNK         0.3061 
    143 H143      -44.5127  -23.3578    9.1868 H         1 UNK         0.0734 
    144 H144      -46.6437  -24.3246   11.1830 H         1 UNK         0.0832 
    145 H145      -44.9142  -24.3533   11.5243 H         1 UNK         0.0832 
    146 H146      -45.7364  -22.8226   11.2794 H         1 UNK         0.0832 
    147 H147      -46.0237  -25.7962    8.6979 H         1 UNK         0.3156 
    148 H148      -44.0401  -27.3314    7.4198 H         1 UNK         0.0589 
    149 H149      -42.7934  -29.2288    8.4791 H         1 UNK         0.0808 
    150 H150      -41.8676  -27.7383    8.5020 H         1 UNK         0.0808 
    151 H151      -42.6489  -28.2997    9.9711 H         1 UNK         0.0808 
    152 H152      -45.8392  -28.4019    8.0581 H         1 UNK         0.3098 
    153 H153      -46.6965  -30.3416    9.8580 H         1 UNK         0.0720 
    154 H154      -48.4841  -30.0661   11.5443 H         1 UNK         0.0791 
    155 H155      -47.9472  -28.4263   11.8756 H         1 UNK         0.0791 
    156 H156      -46.9102  -29.7859   12.2714 H         1 UNK         0.0791 
    157 H157      -48.1509  -29.5785    8.4043 H         1 UNK         0.3028 
@<TRIPOS>BOND
     1    1    2 1    
     2    1   82 1    
     3    1   83 1    
     4    1   84 1    
     5    2    3 2    
     6    2    4 am   BACKBONE|DICT|INTERRES
     7    4    5 1    
     8    4   85 1    
     9    5    6 1    
    10    5   80 1    
    11    5   86 1    
    12    6    7 1    
    13    6   87 1    
    14    6   88 1    
    15    7    8 1    
    16    8    9 1    
    17    8   89 1    
    18    8   90 1    
    19    9   10 ar   
    20    9   14 ar   
    21   10   11 ar   
    22   10   91 1    
    23   11   12 ar   
    24   11   58 1    
    25   12   13 ar   
    26   12   92 1    
    27   13   14 ar   
    28   13   15 1    
    29   14   93 1    
    30   15   16 1    
    31   15   94 1    
    32   15   95 1    
    33   16   17 1    
    34   17   18 1    
    35   17   96 1    
    36   17   97 1    
    37   18   19 1    
    38   18   22 1    
    39   18   98 1    
    40   19   20 am   BACKBONE|DICT|INTERRES
    41   19   21 2    
    42   20   99 1    
    43   20  100 1    
    44   22   23 am   BACKBONE|DICT|INTERRES
    45   22  101 1    
    46   23   24 2    
    47   23   25 1    
    48   25   26 1    
    49   25   27 1    
    50   25  102 1    
    51   26  103 1    
    52   26  104 1    
    53   26  105 1    
    54   27   28 am   BACKBONE|DICT|INTERRES
    55   27  106 1    
    56   28   29 2    
    57   28   30 1    
    58   30   31 1    
    59   30   32 1    
    60   30  107 1    
    61   31  108 1    
    62   31  109 1    
    63   31  110 1    
    64   32   33 am   BACKBONE|DICT|INTERRES
    65   32  111 1    
    66   33   34 2    
    67   33   35 1    
    68   35   36 1    
    69   35   37 1    
    70   35  112 1    
    71   36  113 1    
    72   36  114 1    
    73   36  115 1    
    74   37   38 am   BACKBONE|DICT|INTERRES
    75   37  116 1    
    76   38   39 2    
    77   38   40 1    
    78   40   41 1    
    79   40   42 1    
    80   40  117 1    
    81   41  118 1    
    82   41  119 1    
    83   41  120 1    
    84   42   43 am   BACKBONE|DICT|INTERRES
    85   42  121 1    
    86   43   44 2    
    87   43   45 1    
    88   45   46 1    
    89   45   47 1    
    90   45  122 1    
    91   46  123 1    
    92   46  124 1    
    93   46  125 1    
    94   47   48 am   BACKBONE|DICT|INTERRES
    95   47  126 1    
    96   48   49 2    
    97   48   50 1    
    98   50   51 1    
    99   50   52 1    
   100   50  127 1    
   101   51  128 1    
   102   51  129 1    
   103   51  130 1    
   104   52   53 am   BACKBONE|DICT|INTERRES
   105   52  131 1    
   106   53   54 2    
   107   53   55 1    
   108   55   56 1    
   109   55   59 1    
   110   55  132 1    
   111   56   57 1    
   112   56  133 1    
   113   56  134 1    
   114   57   58 1    
   115   58  135 1    
   116   58  136 1    
   117   59   60 am   BACKBONE|DICT|INTERRES
   118   59  137 1    
   119   60   61 2    
   120   60   62 1    
   121   62   63 1    
   122   62   64 1    
   123   62  138 1    
   124   63  139 1    
   125   63  140 1    
   126   63  141 1    
   127   64   65 am   BACKBONE|DICT|INTERRES
   128   64  142 1    
   129   65   66 2    
   130   65   67 1    
   131   67   68 1    
   132   67   69 1    
   133   67  143 1    
   134   68  144 1    
   135   68  145 1    
   136   68  146 1    
   137   69   70 am   BACKBONE|DICT|INTERRES
   138   69  147 1    
   139   70   71 2    
   140   70   72 1    
   141   72   73 1    
   142   72   74 1    
   143   72  148 1    
   144   73  149 1    
   145   73  150 1    
   146   73  151 1    
   147   74   75 am   BACKBONE|DICT|INTERRES
   148   74  152 1    
   149   75   76 2    
   150   75   77 1    
   151   77   78 1    
   152   77   79 1    
   153   77  153 1    
   154   78  154 1    
   155   78  155 1    
   156   78  156 1    
   157   79   80 am   BACKBONE|DICT|INTERRES
   158   79  157 1    
   159   80   81 2    
@<TRIPOS>SUBSTRUCTURE
     1 UNK         1 GROUP             0       ****    0 ROOT    
