@<TRIPOS>MOLECULE
3R207
157   159    1
SMALL
USER_CHARGES


@<TRIPOS>ATOM
      1 CA        -47.0839  -29.4845    6.7190 C.3       0 UNK        -0.1975 
      2 C         -48.0269  -28.3082    6.5110 C.2       0 UNK         0.4852 
      3 O         -48.1653  -27.4841    7.4118 O.2       0 UNK        -0.5216 
      4 N         -48.6483  -28.2266    5.3223 N.am      1 UNK        -0.4461 
      5 CA        -49.6135  -27.2099    4.8595 C.3       1 UNK         0.0864 
      6 C6        -51.1034  -27.5241    5.1951 C.3       14 UNK        -0.0898 
      7 S7        -51.4892  -27.8382    6.9520 S.3       14 UNK        -0.2598 
      8 C8        -51.7452  -29.6391    6.8994 C.3       14 UNK         0.0286 
      9 C9        -51.7768  -30.2443    8.2926 C.ar      14 UNK        -0.0844 
     10 C10       -50.5787  -30.5291    8.9499 C.ar      14 UNK        -0.0881 
     11 C11       -50.5834  -31.0996   10.2248 C.ar      14 UNK        -0.0643 
     12 C12       -51.8036  -31.4017   10.8388 C.ar      14 UNK        -0.0930 
     13 C13       -53.0106  -31.1380   10.1825 C.ar      14 UNK        -0.0827 
     14 C14       -52.9912  -30.5497    8.9133 C.ar      14 UNK        -0.1249 
     15 C15       -54.3383  -31.5181   10.8210 C.3       14 UNK         0.0141 
     16 S16       -55.0674  -30.1285   11.7379 S.3       14 UNK        -0.2313 
     17 C17       -54.2321  -30.2475   13.3584 C.3       14 UNK        -0.0915 
     18 CA        -55.2028  -29.9471   14.5353 C.3       13 UNK         0.0968 
     19 C         -54.5453  -30.1832   15.9260 C.2       13 UNK         0.5732 
     20 N         -54.7178  -29.3044   16.9084 N.am      13 UNK        -0.7310 
     21 O         -53.8820  -31.1970   16.1306 O.2       13 UNK        -0.5035 
     22 N         -55.7949  -28.6067   14.4146 N.am      13 UNK        -0.4233 
     23 C         -57.1041  -28.3336   14.4183 C.2       13 UNK         0.4989 
     24 O         -57.9822  -29.1951   14.5000 O.2       13 UNK        -0.4996 
     25 CA        -57.5063  -26.8489   14.2956 C.3       12 UNK         0.0216 
     26 CB        -58.9213  -26.5678   14.8459 C.3       12 UNK        -0.1964 
     27 N         -56.5366  -25.9091   14.8728 N.am      12 UNK        -0.4276 
     28 C         -56.1132  -25.8434   16.1456 C.2       12 UNK         0.5020 
     29 O         -56.4614  -26.6387   17.0202 O.2       12 UNK        -0.5489 
     30 CA        -55.1130  -24.7216   16.4934 C.3       11 UNK         0.0294 
     31 CB        -54.1162  -25.1603   17.5826 C.3       11 UNK        -0.2019 
     32 N         -54.3611  -24.2997   15.3104 N.am      11 UNK        -0.4493 
     33 C         -54.5988  -23.2075   14.5712 C.2       11 UNK         0.4932 
     34 O         -55.4491  -22.3639   14.8537 O.2       11 UNK        -0.5029 
     35 CA        -53.7784  -23.0412   13.2770 C.3       10 UNK         0.0280 
     36 CB        -52.6779  -21.9845   13.4635 C.3       10 UNK        -0.1976 
     37 N         -53.1814  -24.3000   12.8165 N.am      10 UNK        -0.4242 
     38 C         -53.8740  -25.2955   12.2386 C.2       10 UNK         0.5072 
     39 O         -55.0744  -25.2208   11.9735 O.2       10 UNK        -0.5224 
     40 CA        -53.1323  -26.6201   11.9764 C.3       9 UNK         0.0343 
     41 CB        -52.5689  -26.6651   10.5481 C.3       9 UNK        -0.2003 
     42 N         -52.0614  -26.8863   12.9422 N.am      9 UNK        -0.4272 
     43 C         -52.2656  -27.0684   14.2564 C.2       9 UNK         0.4988 
     44 O         -53.3865  -27.0737   14.7622 O.2       9 UNK        -0.5108 
     45 CA        -51.0413  -27.2253   15.1772 C.3       8 UNK         0.0248 
     46 CB        -50.7484  -28.7149   15.4145 C.3       8 UNK        -0.2001 
     47 N         -49.8313  -26.5662   14.6813 N.am      8 UNK        -0.4140 
     48 C         -49.7196  -25.2649   14.3748 C.2       8 UNK         0.5028 
     49 O         -50.6079  -24.4382   14.5806 O.2       8 UNK        -0.5428 
     50 CA        -48.4330  -24.8211   13.6504 C.3       7 UNK         0.0264 
     51 CB        -47.4472  -24.1833   14.6417 C.3       7 UNK        -0.1988 
     52 N         -47.7465  -25.8818   12.8986 N.am      7 UNK        -0.4454 
     53 C         -48.3062  -26.6515   11.9517 C.2       7 UNK         0.5027 
     54 O         -49.4938  -26.5876   11.6323 O.2       7 UNK        -0.5083 
     55 CA        -47.3696  -27.6349   11.2396 C.3       6 UNK         0.0844 
     56 C56       -48.0973  -28.8536   10.6216 C.3       14 UNK        -0.0967 
     57 S57       -48.6775  -30.0075   11.9154 S.3       14 UNK        -0.2604 
     58 C58       -49.2681  -31.4113   10.9225 C.3       14 UNK         0.0134 
     59 N         -46.6186  -26.8503   10.2698 N.am      6 UNK        -0.4116 
     60 C         -45.3782  -27.1266    9.8520 C.2       5 UNK         0.5034 
     61 O         -44.7967  -28.1862   10.0880 O.2       5 UNK        -0.5045 
     62 CA        -44.6268  -26.0171    9.0869 C.3       5 UNK         0.0224 
     63 CB        -44.7185  -26.2449    7.5706 C.3       5 UNK        -0.1978 
     64 N         -45.0865  -24.6588    9.4047 N.am      5 UNK        -0.4737 
     65 C         -45.0674  -24.1043   10.6279 C.2       4 UNK         0.5027 
     66 O         -44.5483  -24.6395   11.6077 O.2       4 UNK        -0.5211 
     67 CA        -45.7755  -22.7484   10.8167 C.3       4 UNK         0.0297 
     68 CB        -44.7432  -21.6188   10.9603 C.3       4 UNK        -0.1993 
     69 N         -46.7259  -22.3959    9.7572 N.am      4 UNK        -0.4486 
     70 C         -47.8122  -23.0970    9.4016 C.2       3 UNK         0.4961 
     71 O         -48.1513  -24.1500    9.9374 O.2       3 UNK        -0.5105 
     72 CA        -48.6402  -22.5519    8.2233 C.3       3 UNK         0.0299 
     73 CB        -48.4755  -21.0312    8.0039 C.3       3 UNK        -0.1972 
     74 N         -48.3811  -23.2685    6.9691 N.am      3 UNK        -0.4305 
     75 C         -47.2007  -23.5122    6.3820 C.2       2 UNK         0.5006 
     76 O         -46.1096  -23.2407    6.8884 O.2       2 UNK        -0.5106 
     77 CA        -47.2557  -24.1460    4.9768 C.3       2 UNK         0.0296 
     78 CB        -45.8669  -24.2440    4.3166 C.3       2 UNK        -0.2002 
     79 N         -47.8790  -25.4714    4.9545 N.am      2 UNK        -0.4032 
     80 C         -49.1881  -25.7361    5.0780 C.2       1 UNK         0.5000 
     81 O         -50.0336  -24.8638    5.2954 O.2       1 UNK        -0.5238 
     82 H82       -46.0997  -29.1268    7.0199 H         1 UNK         0.0889 
     83 H83       -46.9652  -30.0794    5.8136 H         1 UNK         0.0889 
     84 H84       -47.4600  -30.1364    7.5059 H         1 UNK         0.0889 
     85 H85       -48.4526  -28.9465    4.6402 H         1 UNK         0.3028 
     86 H86       -49.5581  -27.2962    3.7729 H         1 UNK         0.0864 
     87 H87       -51.7575  -26.7235    4.8457 H         1 UNK         0.0720 
     88 H88       -51.4123  -28.3948    4.6151 H         1 UNK         0.0720 
     89 H89       -50.9425  -30.1041    6.3246 H         1 UNK         0.0814 
     90 H90       -52.6719  -29.8562    6.3660 H         1 UNK         0.0814 
     91 H91       -49.6401  -30.2986    8.4676 H         1 UNK         0.1469 
     92 H92       -51.8126  -31.8518   11.8219 H         1 UNK         0.1381 
     93 H93       -53.9224  -30.3405    8.4046 H         1 UNK         0.1206 
     94 H94       -55.0398  -31.8228   10.0429 H         1 UNK         0.0813 
     95 H95       -54.2231  -32.3858   11.4721 H         1 UNK         0.0813 
     96 H96       -53.3841  -29.5636   13.3624 H         1 UNK         0.0638 
     97 H97       -53.8119  -31.2486   13.4649 H         1 UNK         0.0638 
     98 H98       -55.9951  -30.6954   14.4838 H         1 UNK         0.0568 
     99 H99       -54.2924  -29.4807   17.8038 H         1 UNK         0.3450 
    100 H100      -55.2811  -28.4747   16.7725 H         1 UNK         0.3450 
    101 H101      -55.1216  -27.8463   14.4168 H         1 UNK         0.2987 
    102 H102      -57.5229  -26.6382   13.2252 H         1 UNK         0.0766 
    103 H103      -58.9970  -26.8116   15.9062 H         1 UNK         0.0798 
    104 H104      -59.1945  -25.5199   14.7223 H         1 UNK         0.0798 
    105 H105      -59.6728  -27.1593   14.3215 H         1 UNK         0.0798 
    106 H106      -56.1461  -25.2423   14.2199 H         1 UNK         0.3198 
    107 H107      -55.6954  -23.8852   16.8850 H         1 UNK         0.0843 
    108 H108      -54.6321  -25.3938   18.5148 H         1 UNK         0.0831 
    109 H109      -53.3953  -24.3726   17.8021 H         1 UNK         0.0831 
    110 H110      -53.5610  -26.0511   17.2869 H         1 UNK         0.0831 
    111 H111      -53.6774  -24.9690   14.9771 H         1 UNK         0.3133 
    112 H112      -54.4579  -22.6829   12.5008 H         1 UNK         0.0566 
    113 H113      -52.0888  -21.8564   12.5553 H         1 UNK         0.0814 
    114 H114      -53.1109  -21.0136   13.7082 H         1 UNK         0.0814 
    115 H115      -51.9965  -22.2458   14.2734 H         1 UNK         0.0814 
    116 H116      -52.2092  -24.4540   13.0599 H         1 UNK         0.3091 
    117 H117      -53.8657  -27.4221   12.0710 H         1 UNK         0.0702 
    118 H118      -52.0977  -27.6266   10.3383 H         1 UNK         0.0785 
    119 H119      -51.8245  -25.8855   10.3810 H         1 UNK         0.0785 
    120 H120      -53.3601  -26.5270    9.8103 H         1 UNK         0.0785 
    121 H121      -51.1109  -26.8708   12.5769 H         1 UNK         0.2998 
    122 H122      -51.2936  -26.7658   16.1348 H         1 UNK         0.0697 
    123 H123      -50.4829  -29.2269   14.4883 H         1 UNK         0.0825 
    124 H124      -51.6211  -29.2223   15.8275 H         1 UNK         0.0825 
    125 H125      -49.9318  -28.8535   16.1231 H         1 UNK         0.0825 
    126 H126      -49.0494  -27.1657   14.4630 H         1 UNK         0.3029 
    127 H127      -48.7276  -24.0607   12.9237 H         1 UNK         0.0897 
    128 H128      -46.5777  -23.7704   14.1298 H         1 UNK         0.0792 
    129 H129      -47.9184  -23.3644   15.1876 H         1 UNK         0.0792 
    130 H130      -47.0927  -24.9050   15.3787 H         1 UNK         0.0792 
    131 H131      -46.7565  -25.9852   13.0746 H         1 UNK         0.3086 
    132 H132      -46.6639  -28.0056   11.9869 H         1 UNK         0.0583 
    133 H133      -48.9328  -28.5319    9.9967 H         1 UNK         0.1020 
    134 H134      -47.4165  -29.3962    9.9649 H         1 UNK         0.1020 
    135 H135      -48.5060  -31.6937   10.1944 H         1 UNK         0.0694 
    136 H136      -49.3943  -32.2740   11.5785 H         1 UNK         0.0694 
    137 H137      -47.0386  -25.9597   10.0179 H         1 UNK         0.2989 
    138 H138      -43.5770  -26.0826    9.3805 H         1 UNK         0.1055 
    139 H139      -44.1178  -25.5170    7.0251 H         1 UNK         0.0806 
    140 H140      -45.7463  -26.1665    7.2160 H         1 UNK         0.0806 
    141 H141      -44.3519  -27.2359    7.3000 H         1 UNK         0.0806 
    142 H142      -45.5130  -24.1332    8.6469 H         1 UNK         0.3061 
    143 H143      -46.3424  -22.8148   11.7475 H         1 UNK         0.0734 
    144 H144      -44.0392  -21.8329   11.7660 H         1 UNK         0.0832 
    145 H145      -44.1617  -21.4863   10.0470 H         1 UNK         0.0832 
    146 H146      -45.2221  -20.6685   11.1972 H         1 UNK         0.0832 
    147 H147      -46.5065  -21.5734    9.2141 H         1 UNK         0.3156 
    148 H148      -49.6857  -22.7372    8.4745 H         1 UNK         0.0589 
    149 H149      -49.1939  -20.6658    7.2699 H         1 UNK         0.0808 
    150 H150      -48.6551  -20.4766    8.9262 H         1 UNK         0.0808 
    151 H151      -47.4807  -20.7677    7.6429 H         1 UNK         0.0808 
    152 H152      -49.2014  -23.6313    6.4879 H         1 UNK         0.3098 
    153 H153      -47.8608  -23.4791    4.3589 H         1 UNK         0.0720 
    154 H154      -45.3783  -23.2691    4.2853 H         1 UNK         0.0791 
    155 H155      -45.9403  -24.5980    3.2881 H         1 UNK         0.0791 
    156 H156      -45.2069  -24.9218    4.8582 H         1 UNK         0.0791 
    157 H157      -47.2582  -26.2538    4.8098 H         1 UNK         0.3028 
@<TRIPOS>BOND
     1    1    2 1    
     2    1   82 1    
     3    1   83 1    
     4    1   84 1    
     5    2    3 2    
     6    2    4 am   BACKBONE|DICT|INTERRES
     7    4    5 1    
     8    4   85 1    
     9    5    6 1    
    10    5   80 1    
    11    5   86 1    
    12    6    7 1    
    13    6   87 1    
    14    6   88 1    
    15    7    8 1    
    16    8    9 1    
    17    8   89 1    
    18    8   90 1    
    19    9   10 ar   
    20    9   14 ar   
    21   10   11 ar   
    22   10   91 1    
    23   11   12 ar   
    24   11   58 1    
    25   12   13 ar   
    26   12   92 1    
    27   13   14 ar   
    28   13   15 1    
    29   14   93 1    
    30   15   16 1    
    31   15   94 1    
    32   15   95 1    
    33   16   17 1    
    34   17   18 1    
    35   17   96 1    
    36   17   97 1    
    37   18   19 1    
    38   18   22 1    
    39   18   98 1    
    40   19   20 am   BACKBONE|DICT|INTERRES
    41   19   21 2    
    42   20   99 1    
    43   20  100 1    
    44   22   23 am   BACKBONE|DICT|INTERRES
    45   22  101 1    
    46   23   24 2    
    47   23   25 1    
    48   25   26 1    
    49   25   27 1    
    50   25  102 1    
    51   26  103 1    
    52   26  104 1    
    53   26  105 1    
    54   27   28 am   BACKBONE|DICT|INTERRES
    55   27  106 1    
    56   28   29 2    
    57   28   30 1    
    58   30   31 1    
    59   30   32 1    
    60   30  107 1    
    61   31  108 1    
    62   31  109 1    
    63   31  110 1    
    64   32   33 am   BACKBONE|DICT|INTERRES
    65   32  111 1    
    66   33   34 2    
    67   33   35 1    
    68   35   36 1    
    69   35   37 1    
    70   35  112 1    
    71   36  113 1    
    72   36  114 1    
    73   36  115 1    
    74   37   38 am   BACKBONE|DICT|INTERRES
    75   37  116 1    
    76   38   39 2    
    77   38   40 1    
    78   40   41 1    
    79   40   42 1    
    80   40  117 1    
    81   41  118 1    
    82   41  119 1    
    83   41  120 1    
    84   42   43 am   BACKBONE|DICT|INTERRES
    85   42  121 1    
    86   43   44 2    
    87   43   45 1    
    88   45   46 1    
    89   45   47 1    
    90   45  122 1    
    91   46  123 1    
    92   46  124 1    
    93   46  125 1    
    94   47   48 am   BACKBONE|DICT|INTERRES
    95   47  126 1    
    96   48   49 2    
    97   48   50 1    
    98   50   51 1    
    99   50   52 1    
   100   50  127 1    
   101   51  128 1    
   102   51  129 1    
   103   51  130 1    
   104   52   53 am   BACKBONE|DICT|INTERRES
   105   52  131 1    
   106   53   54 2    
   107   53   55 1    
   108   55   56 1    
   109   55   59 1    
   110   55  132 1    
   111   56   57 1    
   112   56  133 1    
   113   56  134 1    
   114   57   58 1    
   115   58  135 1    
   116   58  136 1    
   117   59   60 am   BACKBONE|DICT|INTERRES
   118   59  137 1    
   119   60   61 2    
   120   60   62 1    
   121   62   63 1    
   122   62   64 1    
   123   62  138 1    
   124   63  139 1    
   125   63  140 1    
   126   63  141 1    
   127   64   65 am   BACKBONE|DICT|INTERRES
   128   64  142 1    
   129   65   66 2    
   130   65   67 1    
   131   67   68 1    
   132   67   69 1    
   133   67  143 1    
   134   68  144 1    
   135   68  145 1    
   136   68  146 1    
   137   69   70 am   BACKBONE|DICT|INTERRES
   138   69  147 1    
   139   70   71 2    
   140   70   72 1    
   141   72   73 1    
   142   72   74 1    
   143   72  148 1    
   144   73  149 1    
   145   73  150 1    
   146   73  151 1    
   147   74   75 am   BACKBONE|DICT|INTERRES
   148   74  152 1    
   149   75   76 2    
   150   75   77 1    
   151   77   78 1    
   152   77   79 1    
   153   77  153 1    
   154   78  154 1    
   155   78  155 1    
   156   78  156 1    
   157   79   80 am   BACKBONE|DICT|INTERRES
   158   79  157 1    
   159   80   81 2    
@<TRIPOS>SUBSTRUCTURE
     1 UNK         1 GROUP             0       ****    0 ROOT    
