@<TRIPOS>MOLECULE
3R207
157   159    1
SMALL
USER_CHARGES


@<TRIPOS>ATOM
      1 CA        -45.2429  -29.7927    1.5927 C.3       0 UNK        -0.1975 
      2 C         -46.2035  -28.7598    2.1636 C.2       0 UNK         0.4852 
      3 O         -45.9812  -27.5596    1.9969 O.2       0 UNK        -0.5216 
      4 N         -47.2730  -29.2155    2.8290 N.am      1 UNK        -0.4461 
      5 CA        -48.2616  -28.3700    3.5018 C.3       1 UNK         0.0864 
      6 C6        -49.5633  -29.1618    3.7933 C.3       14 UNK        -0.0898 
      7 S7        -51.0142  -28.0857    4.0491 S.3       14 UNK        -0.2598 
      8 C8        -52.2283  -29.2735    4.7179 C.3       14 UNK         0.0286 
      9 C9        -52.3165  -29.1928    6.2357 C.ar      14 UNK        -0.0844 
     10 C10       -51.3456  -29.8041    7.0337 C.ar      14 UNK        -0.0881 
     11 C11       -51.3855  -29.6721    8.4244 C.ar      14 UNK        -0.0643 
     12 C12       -52.4232  -28.9522    9.0210 C.ar      14 UNK        -0.0930 
     13 C13       -53.4170  -28.3606    8.2376 C.ar      14 UNK        -0.0827 
     14 C14       -53.3592  -28.4861    6.8452 C.ar      14 UNK        -0.1249 
     15 C15       -54.5178  -27.5348    8.8872 C.3       14 UNK         0.0141 
     16 S16       -55.9593  -28.5495    9.3382 S.3       14 UNK        -0.2313 
     17 C17       -55.5559  -29.0531   11.0466 C.3       14 UNK        -0.0915 
     18 CA        -56.1417  -28.0858   12.1098 C.3       13 UNK         0.0968 
     19 C         -57.6876  -28.2012   12.2273 C.2       13 UNK         0.5732 
     20 N         -58.4345  -27.2955   11.6106 N.am      13 UNK        -0.7310 
     21 O         -58.2108  -29.1216   12.8536 O.2       13 UNK        -0.5035 
     22 N         -55.4958  -28.2923   13.4130 N.am      13 UNK        -0.4233 
     23 C         -55.5348  -27.4143   14.4237 C.2       13 UNK         0.4989 
     24 O         -56.0224  -26.2873   14.3174 O.2       13 UNK        -0.4996 
     25 CA        -54.9384  -27.8586   15.7752 C.3       12 UNK         0.0216 
     26 CB        -54.0661  -29.1281   15.6965 C.3       12 UNK        -0.1964 
     27 N         -54.1461  -26.7726   16.3520 N.am      12 UNK        -0.4276 
     28 C         -54.5959  -25.8660   17.2299 C.2       12 UNK         0.5020 
     29 O         -55.7162  -25.8938   17.7428 O.2       12 UNK        -0.5489 
     30 CA        -53.6295  -24.7292   17.5961 C.3       11 UNK         0.0294 
     31 CB        -52.6558  -25.1797   18.6962 C.3       11 UNK        -0.2019 
     32 N         -52.8722  -24.2750   16.4291 N.am      11 UNK        -0.4493 
     33 C         -53.3334  -23.4109   15.5148 C.2       11 UNK         0.4932 
     34 O         -54.4217  -22.8405   15.6084 O.2       11 UNK        -0.5029 
     35 CA        -52.4300  -23.1445   14.2908 C.3       10 UNK         0.0280 
     36 CB        -52.8196  -21.8665   13.5187 C.3       10 UNK        -0.1976 
     37 N         -50.9960  -23.1369   14.6043 N.am      10 UNK        -0.4242 
     38 C         -50.3529  -22.3518   15.4828 C.2       10 UNK         0.5072 
     39 O         -50.8912  -21.4699   16.1549 O.2       10 UNK        -0.5224 
     40 CA        -48.8430  -22.6229   15.6234 C.3       9 UNK         0.0343 
     41 CB        -48.1864  -21.8723   16.8025 C.3       9 UNK        -0.2003 
     42 N         -48.5545  -24.0626   15.6666 N.am      9 UNK        -0.4272 
     43 C         -48.9168  -24.9359   16.6169 C.2       9 UNK         0.4988 
     44 O         -49.4919  -24.6261   17.6608 O.2       9 UNK        -0.5108 
     45 CA        -48.5902  -26.4099   16.3218 C.3       8 UNK         0.0248 
     46 CB        -48.9214  -27.3516   17.5002 C.3       8 UNK        -0.2001 
     47 N         -49.2142  -26.8876   15.0819 N.am      8 UNK        -0.4140 
     48 C         -50.5260  -26.9923   14.8127 C.2       8 UNK         0.5028 
     49 O         -51.4100  -26.6121   15.5822 O.2       8 UNK        -0.5428 
     50 CA        -50.9522  -27.6219   13.4681 C.3       7 UNK         0.0264 
     51 CB        -52.0293  -26.7682   12.7776 C.3       7 UNK        -0.1988 
     52 N         -49.8429  -27.8636   12.5394 N.am      7 UNK        -0.4454 
     53 C         -48.9846  -28.8929   12.6238 C.2       7 UNK         0.5027 
     54 O         -49.1206  -29.8201   13.4227 O.2       7 UNK        -0.5083 
     55 CA        -47.7177  -28.8529   11.7402 C.3       6 UNK         0.0844 
     56 C56       -47.7847  -29.8181   10.5317 C.3       14 UNK        -0.0967 
     57 S57       -48.7947  -29.1994    9.1510 S.3       14 UNK        -0.2604 
     58 C58       -50.2709  -30.2490    9.2774 C.3       14 UNK         0.0134 
     59 N         -47.3255  -27.4872   11.3708 N.am      6 UNK        -0.4116 
     60 C         -46.8283  -26.5943   12.2379 C.2       5 UNK         0.5034 
     61 O         -46.6420  -26.8288   13.4326 O.2       5 UNK        -0.5045 
     62 CA        -46.5408  -25.1894   11.6964 C.3       5 UNK         0.0224 
     63 CB        -45.3099  -25.1841   10.7747 C.3       5 UNK        -0.1978 
     64 N         -47.6997  -24.6319   10.9987 N.am      5 UNK        -0.4737 
     65 C         -48.8137  -24.2152   11.6167 C.2       4 UNK         0.5027 
     66 O         -48.9894  -24.2905   12.8321 O.2       4 UNK        -0.5211 
     67 CA        -49.9299  -23.6195   10.7442 C.3       4 UNK         0.0297 
     68 CB        -49.7468  -22.1007   10.6062 C.3       4 UNK        -0.1993 
     69 N         -50.0328  -24.2295    9.4170 N.am      4 UNK        -0.4486 
     70 C         -50.3554  -25.5129    9.2094 C.2       3 UNK         0.4961 
     71 O         -50.5516  -26.3223   10.1129 O.2       3 UNK        -0.5105 
     72 CA        -50.4615  -25.9710    7.7488 C.3       3 UNK         0.0299 
     73 CB        -51.7356  -25.4029    7.1015 C.3       3 UNK        -0.1972 
     74 N         -49.3132  -25.6628    6.8924 N.am      3 UNK        -0.4305 
     75 C         -48.0071  -25.7721    7.1828 C.2       2 UNK         0.5006 
     76 O         -47.5484  -25.9798    8.3079 O.2       2 UNK        -0.5106 
     77 CA        -47.0628  -25.6291    5.9734 C.3       2 UNK         0.0296 
     78 CB        -45.5858  -25.9202    6.3190 C.3       2 UNK        -0.2002 
     79 N         -47.5181  -26.4373    4.8299 N.am      2 UNK        -0.4032 
     80 C         -47.6449  -27.7746    4.7848 C.2       1 UNK         0.5000 
     81 O         -47.2959  -28.5398    5.6867 O.2       1 UNK        -0.5238 
     82 H82       -44.2497  -29.6572    2.0201 H         1 UNK         0.0889 
     83 H83       -45.1677  -29.6778    0.5117 H         1 UNK         0.0889 
     84 H84       -45.5667  -30.8118    1.8035 H         1 UNK         0.0889 
     85 H85       -47.3853  -30.2104    2.9626 H         1 UNK         0.3028 
     86 H86       -48.5102  -27.5564    2.8162 H         1 UNK         0.0864 
     87 H87       -49.4359  -29.8317    4.6446 H         1 UNK         0.0720 
     88 H88       -49.8024  -29.8039    2.9438 H         1 UNK         0.0720 
     89 H89       -51.9774  -30.2895    4.4094 H         1 UNK         0.0814 
     90 H90       -53.2022  -29.0584    4.2756 H         1 UNK         0.0814 
     91 H91       -50.5299  -30.3453    6.5765 H         1 UNK         0.1469 
     92 H92       -52.4342  -28.8255   10.0936 H         1 UNK         0.1381 
     93 H93       -54.1132  -28.0090    6.2342 H         1 UNK         0.1206 
     94 H94       -54.8478  -26.7573    8.1967 H         1 UNK         0.0813 
     95 H95       -54.1347  -27.0111    9.7647 H         1 UNK         0.0813 
     96 H96       -55.9176  -30.0707   11.2053 H         1 UNK         0.0638 
     97 H97       -54.4717  -29.1065   11.1442 H         1 UNK         0.0638 
     98 H98       -55.8983  -27.0680   11.7970 H         1 UNK         0.0568 
     99 H99       -59.4381  -27.3646   11.6701 H         1 UNK         0.3450 
    100 H100      -58.0134  -26.5494   11.0798 H         1 UNK         0.3450 
    101 H101      -55.1164  -29.2115   13.5817 H         1 UNK         0.2987 
    102 H102      -55.7829  -28.0818   16.4303 H         1 UNK         0.0766 
    103 H103      -53.2423  -29.0143   14.9939 H         1 UNK         0.0798 
    104 H104      -54.6506  -29.9977   15.3937 H         1 UNK         0.0798 
    105 H105      -53.6345  -29.3650   16.6694 H         1 UNK         0.0798 
    106 H106      -53.1928  -26.6682   16.0056 H         1 UNK         0.3198 
    107 H107      -54.2190  -23.8961   17.9855 H         1 UNK         0.0843 
    108 H108      -52.0024  -24.3629   19.0036 H         1 UNK         0.0831 
    109 H109      -52.0229  -26.0034   18.3635 H         1 UNK         0.0831 
    110 H110      -53.1951  -25.5169   19.5822 H         1 UNK         0.0831 
    111 H111      -51.9952  -24.7535   16.2498 H         1 UNK         0.3133 
    112 H112      -52.5890  -23.9872   13.6191 H         1 UNK         0.0566 
    113 H113      -53.8512  -21.9189   13.1685 H         1 UNK         0.0814 
    114 H114      -52.7325  -20.9763   14.1425 H         1 UNK         0.0814 
    115 H115      -52.1891  -21.7247   12.6412 H         1 UNK         0.0814 
    116 H116      -50.4204  -23.7913   14.0810 H         1 UNK         0.3091 
    117 H117      -48.3840  -22.2506   14.7062 H         1 UNK         0.0702 
    118 H118      -47.1211  -22.0924   16.8690 H         1 UNK         0.0785 
    119 H119      -48.6440  -22.1315   17.7576 H         1 UNK         0.0785 
    120 H120      -48.2876  -20.7934   16.6795 H         1 UNK         0.0785 
    121 H121      -48.1777  -24.4391   14.8038 H         1 UNK         0.2998 
    122 H122      -47.5122  -26.4593   16.1604 H         1 UNK         0.0697 
    123 H123      -48.6284  -28.3782   17.2809 H         1 UNK         0.0825 
    124 H124      -48.3893  -27.0477   18.4024 H         1 UNK         0.0825 
    125 H125      -49.9855  -27.3509   17.7372 H         1 UNK         0.0825 
    126 H126      -48.5600  -27.1625   14.3592 H         1 UNK         0.3029 
    127 H127      -51.4008  -28.5864   13.7089 H         1 UNK         0.0897 
    128 H128      -52.4166  -27.2618   11.8873 H         1 UNK         0.0792 
    129 H129      -52.8794  -26.5822   13.4330 H         1 UNK         0.0792 
    130 H130      -51.6323  -25.7998   12.4767 H         1 UNK         0.0792 
    131 H131      -49.7286  -27.1861   11.7907 H         1 UNK         0.3086 
    132 H132      -46.9178  -29.2370   12.3776 H         1 UNK         0.0583 
    133 H133      -46.7760  -29.9716   10.1451 H         1 UNK         0.1020 
    134 H134      -48.1270  -30.8084   10.8388 H         1 UNK         0.1020 
    135 H135      -50.0316  -31.2620    8.9509 H         1 UNK         0.0694 
    136 H136      -50.5857  -30.3175   10.3200 H         1 UNK         0.0694 
    137 H137      -47.4934  -27.2098   10.4105 H         1 UNK         0.2989 
    138 H138      -46.3195  -24.5461   12.5514 H         1 UNK         0.1055 
    139 H139      -45.4485  -25.8181    9.8986 H         1 UNK         0.0806 
    140 H140      -44.4285  -25.5503   11.3028 H         1 UNK         0.0806 
    141 H141      -45.0816  -24.1772   10.4250 H         1 UNK         0.0806 
    142 H142      -47.6780  -24.6499    9.9852 H         1 UNK         0.3061 
    143 H143      -50.8749  -23.7973   11.2614 H         1 UNK         0.0734 
    144 H144      -50.5845  -21.6453   10.0778 H         1 UNK         0.0832 
    145 H145      -49.6887  -21.6253   11.5867 H         1 UNK         0.0832 
    146 H146      -48.8314  -21.8505   10.0685 H         1 UNK         0.0832 
    147 H147      -49.8651  -23.6370    8.6170 H         1 UNK         0.3156 
    148 H148      -50.5471  -27.0572    7.7618 H         1 UNK         0.0589 
    149 H149      -51.6609  -24.3290    6.9278 H         1 UNK         0.0808 
    150 H150      -51.9421  -25.8849    6.1458 H         1 UNK         0.0808 
    151 H151      -52.6055  -25.5680    7.7374 H         1 UNK         0.0808 
    152 H152      -49.5450  -25.4792    5.9277 H         1 UNK         0.3098 
    153 H153      -47.1237  -24.5861    5.6592 H         1 UNK         0.0720 
    154 H154      -45.2213  -25.2280    7.0790 H         1 UNK         0.0791 
    155 H155      -45.4500  -26.9285    6.7113 H         1 UNK         0.0791 
    156 H156      -44.9443  -25.8106    5.4447 H         1 UNK         0.0791 
    157 H157      -47.7982  -25.9119    4.0128 H         1 UNK         0.3028 
@<TRIPOS>BOND
     1    1    2 1    
     2    1   82 1    
     3    1   83 1    
     4    1   84 1    
     5    2    3 2    
     6    2    4 am   BACKBONE|DICT|INTERRES
     7    4    5 1    
     8    4   85 1    
     9    5    6 1    
    10    5   80 1    
    11    5   86 1    
    12    6    7 1    
    13    6   87 1    
    14    6   88 1    
    15    7    8 1    
    16    8    9 1    
    17    8   89 1    
    18    8   90 1    
    19    9   10 ar   
    20    9   14 ar   
    21   10   11 ar   
    22   10   91 1    
    23   11   12 ar   
    24   11   58 1    
    25   12   13 ar   
    26   12   92 1    
    27   13   14 ar   
    28   13   15 1    
    29   14   93 1    
    30   15   16 1    
    31   15   94 1    
    32   15   95 1    
    33   16   17 1    
    34   17   18 1    
    35   17   96 1    
    36   17   97 1    
    37   18   19 1    
    38   18   22 1    
    39   18   98 1    
    40   19   20 am   BACKBONE|DICT|INTERRES
    41   19   21 2    
    42   20   99 1    
    43   20  100 1    
    44   22   23 am   BACKBONE|DICT|INTERRES
    45   22  101 1    
    46   23   24 2    
    47   23   25 1    
    48   25   26 1    
    49   25   27 1    
    50   25  102 1    
    51   26  103 1    
    52   26  104 1    
    53   26  105 1    
    54   27   28 am   BACKBONE|DICT|INTERRES
    55   27  106 1    
    56   28   29 2    
    57   28   30 1    
    58   30   31 1    
    59   30   32 1    
    60   30  107 1    
    61   31  108 1    
    62   31  109 1    
    63   31  110 1    
    64   32   33 am   BACKBONE|DICT|INTERRES
    65   32  111 1    
    66   33   34 2    
    67   33   35 1    
    68   35   36 1    
    69   35   37 1    
    70   35  112 1    
    71   36  113 1    
    72   36  114 1    
    73   36  115 1    
    74   37   38 am   BACKBONE|DICT|INTERRES
    75   37  116 1    
    76   38   39 2    
    77   38   40 1    
    78   40   41 1    
    79   40   42 1    
    80   40  117 1    
    81   41  118 1    
    82   41  119 1    
    83   41  120 1    
    84   42   43 am   BACKBONE|DICT|INTERRES
    85   42  121 1    
    86   43   44 2    
    87   43   45 1    
    88   45   46 1    
    89   45   47 1    
    90   45  122 1    
    91   46  123 1    
    92   46  124 1    
    93   46  125 1    
    94   47   48 am   BACKBONE|DICT|INTERRES
    95   47  126 1    
    96   48   49 2    
    97   48   50 1    
    98   50   51 1    
    99   50   52 1    
   100   50  127 1    
   101   51  128 1    
   102   51  129 1    
   103   51  130 1    
   104   52   53 am   BACKBONE|DICT|INTERRES
   105   52  131 1    
   106   53   54 2    
   107   53   55 1    
   108   55   56 1    
   109   55   59 1    
   110   55  132 1    
   111   56   57 1    
   112   56  133 1    
   113   56  134 1    
   114   57   58 1    
   115   58  135 1    
   116   58  136 1    
   117   59   60 am   BACKBONE|DICT|INTERRES
   118   59  137 1    
   119   60   61 2    
   120   60   62 1    
   121   62   63 1    
   122   62   64 1    
   123   62  138 1    
   124   63  139 1    
   125   63  140 1    
   126   63  141 1    
   127   64   65 am   BACKBONE|DICT|INTERRES
   128   64  142 1    
   129   65   66 2    
   130   65   67 1    
   131   67   68 1    
   132   67   69 1    
   133   67  143 1    
   134   68  144 1    
   135   68  145 1    
   136   68  146 1    
   137   69   70 am   BACKBONE|DICT|INTERRES
   138   69  147 1    
   139   70   71 2    
   140   70   72 1    
   141   72   73 1    
   142   72   74 1    
   143   72  148 1    
   144   73  149 1    
   145   73  150 1    
   146   73  151 1    
   147   74   75 am   BACKBONE|DICT|INTERRES
   148   74  152 1    
   149   75   76 2    
   150   75   77 1    
   151   77   78 1    
   152   77   79 1    
   153   77  153 1    
   154   78  154 1    
   155   78  155 1    
   156   78  156 1    
   157   79   80 am   BACKBONE|DICT|INTERRES
   158   79  157 1    
   159   80   81 2    
@<TRIPOS>SUBSTRUCTURE
     1 UNK         1 GROUP             0       ****    0 ROOT    
