@<TRIPOS>MOLECULE
3R207
157   159    1
SMALL
USER_CHARGES


@<TRIPOS>ATOM
      1 CA        -47.4317  -23.4671   11.1402 C.3       0 UNK        -0.1975 
      2 C         -46.9492  -24.9066   11.0421 C.2       0 UNK         0.4852 
      3 O         -45.8726  -25.2280   11.5468 O.2       0 UNK        -0.5216 
      4 N         -47.7432  -25.7721   10.4000 N.am      1 UNK        -0.4461 
      5 CA        -47.5345  -27.2150   10.2447 C.3       1 UNK         0.0864 
      6 C6        -48.7415  -27.8863    9.5442 C.3       14 UNK        -0.0898 
      7 S7        -50.2768  -27.6788   10.5024 S.3       14 UNK        -0.2598 
      8 C8        -51.4231  -28.7755    9.6089 C.3       14 UNK         0.0286 
      9 C9        -52.7305  -28.0610    9.3064 C.ar      14 UNK        -0.0844 
     10 C10       -53.0356  -27.6497    8.0051 C.ar      14 UNK        -0.0881 
     11 C11       -54.2221  -26.9563    7.7430 C.ar      14 UNK        -0.0643 
     12 C12       -55.1174  -26.7017    8.7869 C.ar      14 UNK        -0.0930 
     13 C13       -54.8199  -27.1039   10.0909 C.ar      14 UNK        -0.0827 
     14 C14       -53.6285  -27.7880   10.3411 C.ar      14 UNK        -0.1249 
     15 C15       -55.7510  -26.7434   11.2376 C.3       14 UNK         0.0141 
     16 S16       -56.5652  -28.2048   11.9508 S.3       14 UNK        -0.2313 
     17 C17       -57.6874  -27.3943   13.1396 C.3       14 UNK        -0.0915 
     18 CA        -56.9812  -26.9655   14.4598 C.3       13 UNK         0.0968 
     19 C         -57.8917  -26.0903   15.3756 C.2       13 UNK         0.5732 
     20 N         -57.7576  -26.1520   16.6952 N.am      13 UNK        -0.7310 
     21 O         -58.7064  -25.3110   14.8868 O.2       13 UNK        -0.5035 
     22 N         -56.3022  -28.0823   15.1404 N.am      13 UNK        -0.4233 
     23 C         -56.8805  -29.1490   15.7034 C.2       13 UNK         0.4989 
     24 O         -58.0971  -29.3436   15.7291 O.2       13 UNK        -0.4996 
     25 CA        -55.9201  -30.1720   16.3412 C.3       12 UNK         0.0216 
     26 CB        -56.6606  -31.2631   17.1382 C.3       12 UNK        -0.1964 
     27 N         -55.0577  -30.8149   15.3459 N.am      12 UNK        -0.4276 
     28 C         -53.9993  -30.2501   14.7530 C.2       12 UNK         0.5020 
     29 O         -53.6307  -29.0895   14.9607 O.2       12 UNK        -0.5489 
     30 CA        -53.2360  -31.1251   13.7546 C.3       11 UNK         0.0294 
     31 CB        -53.9508  -31.1760   12.3933 C.3       11 UNK        -0.2019 
     32 N         -51.8974  -30.5701   13.5878 N.am      11 UNK        -0.4493 
     33 C         -50.7755  -31.2821   13.4373 C.2       11 UNK         0.4932 
     34 O         -50.7589  -32.5104   13.3470 O.2       11 UNK        -0.5029 
     35 CA        -49.4409  -30.5162   13.3714 C.3       10 UNK         0.0280 
     36 CB        -48.7666  -30.7173   12.0038 C.3       10 UNK        -0.1976 
     37 N         -49.5706  -29.0798   13.6467 N.am      10 UNK        -0.4242 
     38 C         -49.5688  -28.5474   14.8781 C.2       10 UNK         0.5072 
     39 O         -49.5151  -29.2143   15.9121 O.2       10 UNK        -0.5224 
     40 CA        -49.6292  -27.0179   14.9764 C.3       9 UNK         0.0343 
     41 CB        -48.6842  -26.3205   13.9790 C.3       9 UNK        -0.2003 
     42 N         -50.9926  -26.5581   14.7419 N.am      9 UNK        -0.4272 
     43 C         -51.8575  -26.1347   15.6695 C.2       9 UNK         0.4988 
     44 O         -51.6086  -26.1073   16.8765 O.2       9 UNK        -0.5108 
     45 CA        -53.2154  -25.6096   15.1454 C.3       8 UNK         0.0248 
     46 CB        -54.1301  -25.0993   16.2752 C.3       8 UNK        -0.2001 
     47 N         -53.0644  -24.5500   14.1371 N.am      8 UNK        -0.4140 
     48 C         -52.6605  -24.7519   12.8767 C.2       8 UNK         0.5028 
     49 O         -52.3843  -25.8671   12.4322 O.2       8 UNK        -0.5428 
     50 CA        -52.4788  -23.5227   11.9813 C.3       7 UNK         0.0264 
     51 CB        -51.2113  -22.7445   12.3872 C.3       7 UNK        -0.1988 
     52 N         -52.3590  -23.9957   10.6045 N.am      7 UNK        -0.4454 
     53 C         -52.4738  -23.2566    9.4975 C.2       7 UNK         0.5027 
     54 O         -52.7104  -22.0462    9.4976 O.2       7 UNK        -0.5083 
     55 CA        -52.2854  -23.9889    8.1573 C.3       6 UNK         0.0844 
     56 C56       -53.5611  -23.9228    7.2806 C.3       14 UNK        -0.0967 
     57 S57       -53.4342  -25.0598    5.8545 S.3       14 UNK        -0.2604 
     58 C58       -54.5238  -26.4417    6.3418 C.3       14 UNK         0.0134 
     59 N         -51.1242  -23.4305    7.4636 N.am      6 UNK        -0.4116 
     60 C         -49.8556  -23.7272    7.7597 C.2       5 UNK         0.5034 
     61 O         -49.5207  -24.5353    8.6281 O.2       5 UNK        -0.5045 
     62 CA        -48.7740  -22.9866    6.9672 C.3       5 UNK         0.0224 
     63 CB        -48.3870  -21.6665    7.6563 C.3       5 UNK        -0.1978 
     64 N         -47.6021  -23.8517    6.8532 N.am      5 UNK        -0.4737 
     65 C         -46.7593  -23.8686    5.8156 C.2       4 UNK         0.5027 
     66 O         -46.8227  -23.0790    4.8713 O.2       4 UNK        -0.5211 
     67 CA        -45.6849  -24.9699    5.8384 C.3       4 UNK         0.0297 
     68 CB        -44.7572  -24.9476    4.6038 C.3       4 UNK        -0.1993 
     69 N         -44.9125  -24.9833    7.0858 N.am      4 UNK        -0.4486 
     70 C         -44.0626  -24.0463    7.5390 C.2       3 UNK         0.4961 
     71 O         -43.8409  -22.9863    6.9529 O.2       3 UNK        -0.5105 
     72 CA        -43.3111  -24.3254    8.8608 C.3       3 UNK         0.0299 
     73 CB        -43.5256  -23.1930    9.8787 C.3       3 UNK        -0.1972 
     74 N         -43.6633  -25.6057    9.4831 N.am      3 UNK        -0.4305 
     75 C         -43.1812  -26.7986    9.1003 C.2       2 UNK         0.5006 
     76 O         -42.3057  -26.9378    8.2459 O.2       2 UNK        -0.5106 
     77 CA        -43.8029  -28.0555    9.7417 C.3       2 UNK         0.0296 
     78 CB        -42.9156  -28.5687   10.8873 C.3       2 UNK        -0.2002 
     79 N         -45.1692  -27.8604   10.2394 N.am      2 UNK        -0.4032 
     80 C         -46.2228  -27.5004    9.4913 C.2       1 UNK         0.5000 
     81 O         -46.1698  -27.3273    8.2717 O.2       1 UNK        -0.5238 
     82 H82       -48.4593  -23.3605   10.7948 H         1 UNK         0.0889 
     83 H83       -47.3891  -23.1286   12.1749 H         1 UNK         0.0889 
     84 H84       -46.8050  -22.8108   10.5400 H         1 UNK         0.0889 
     85 H85       -48.5757  -25.4156    9.9328 H         1 UNK         0.3028 
     86 H86       -47.4494  -27.6408   11.2464 H         1 UNK         0.0864 
     87 H87       -48.8981  -27.4631    8.5496 H         1 UNK         0.0720 
     88 H88       -48.5592  -28.9532    9.4043 H         1 UNK         0.0720 
     89 H89       -51.6231  -29.6577   10.2188 H         1 UNK         0.0814 
     90 H90       -50.9639  -29.1353    8.6871 H         1 UNK         0.0814 
     91 H91       -52.3379  -27.8367    7.2003 H         1 UNK         0.1469 
     92 H92       -56.0316  -26.1591    8.5891 H         1 UNK         0.1381 
     93 H93       -53.3815  -28.0759   11.3537 H         1 UNK         0.1206 
     94 H94       -55.1750  -26.2387   12.0132 H         1 UNK         0.0813 
     95 H95       -56.5098  -26.0337   10.9046 H         1 UNK         0.0813 
     96 H96       -58.5088  -28.0796   13.3532 H         1 UNK         0.0638 
     97 H97       -58.1396  -26.5348   12.6419 H         1 UNK         0.0638 
     98 H98       -56.1788  -26.2847   14.1786 H         1 UNK         0.0568 
     99 H99       -57.0930  -26.7804   17.1152 H         1 UNK         0.3450 
    100 H100      -58.3427  -25.5728   17.2761 H         1 UNK         0.3450 
    101 H101      -55.2868  -28.0734   15.1179 H         1 UNK         0.2987 
    102 H102      -55.2876  -29.6246   17.0437 H         1 UNK         0.0766 
    103 H103      -57.2926  -30.8218   17.9102 H         1 UNK         0.0798 
    104 H104      -55.9612  -31.9321   17.6402 H         1 UNK         0.0798 
    105 H105      -57.3034  -31.8682   16.4975 H         1 UNK         0.0798 
    106 H106      -55.3100  -31.7570   15.0828 H         1 UNK         0.3198 
    107 H107      -53.1695  -32.1334   14.1698 H         1 UNK         0.0843 
    108 H108      -54.0831  -30.1809   11.9704 H         1 UNK         0.0831 
    109 H109      -54.9419  -31.6217   12.4848 H         1 UNK         0.0831 
    110 H110      -53.3920  -31.7736   11.6731 H         1 UNK         0.0831 
    111 H111      -51.8382  -29.5720   13.7457 H         1 UNK         0.3133 
    112 H112      -48.7839  -30.9558   14.1249 H         1 UNK         0.0566 
    113 H113      -49.4179  -30.4180   11.1843 H         1 UNK         0.0814 
    114 H114      -48.5198  -31.7680   11.8458 H         1 UNK         0.0814 
    115 H115      -47.8367  -30.1543   11.9264 H         1 UNK         0.0814 
    116 H116      -49.6618  -28.4692   12.8454 H         1 UNK         0.3091 
    117 H117      -49.3062  -26.7432   15.9829 H         1 UNK         0.0702 
    118 H118      -47.6739  -26.7282   14.0362 H         1 UNK         0.0785 
    119 H119      -48.6127  -25.2540   14.1932 H         1 UNK         0.0785 
    120 H120      -49.0258  -26.4199   12.9492 H         1 UNK         0.0785 
    121 H121      -51.3160  -26.5279   13.7760 H         1 UNK         0.2998 
    122 H122      -53.7172  -26.4546   14.6711 H         1 UNK         0.0697 
    123 H123      -55.0890  -24.7536   15.8903 H         1 UNK         0.0825 
    124 H124      -53.6734  -24.2728   16.8211 H         1 UNK         0.0825 
    125 H125      -54.3374  -25.8913   16.9960 H         1 UNK         0.0825 
    126 H126      -53.2266  -23.6039   14.4515 H         1 UNK         0.3029 
    127 H127      -53.3613  -22.8856   12.0683 H         1 UNK         0.0897 
    128 H128      -50.3268  -23.3818   12.3566 H         1 UNK         0.0792 
    129 H129      -51.2956  -22.3545   13.4021 H         1 UNK         0.0792 
    130 H130      -51.0326  -21.8923   11.7315 H         1 UNK         0.0792 
    131 H131      -52.1953  -24.9968   10.5413 H         1 UNK         0.3086 
    132 H132      -52.0801  -25.0388    8.3772 H         1 UNK         0.0583 
    133 H133      -54.4527  -24.1630    7.8611 H         1 UNK         0.1020 
    134 H134      -53.7212  -22.9093    6.9080 H         1 UNK         0.1020 
    135 H135      -55.5620  -26.1146    6.2659 H         1 UNK         0.0694 
    136 H136      -54.4071  -27.2553    5.6246 H         1 UNK         0.0694 
    137 H137      -51.3204  -22.7342    6.7603 H         1 UNK         0.2989 
    138 H138      -49.1661  -22.7739    5.9697 H         1 UNK         0.1055 
    139 H139      -47.6312  -21.1283    7.0839 H         1 UNK         0.0806 
    140 H140      -47.9900  -21.8346    8.6569 H         1 UNK         0.0806 
    141 H141      -49.2502  -21.0067    7.7540 H         1 UNK         0.0806 
    142 H142      -47.5279  -24.5621    7.5707 H         1 UNK         0.3061 
    143 H143      -46.2264  -25.9170    5.8127 H         1 UNK         0.0734 
    144 H144      -44.2078  -24.0095    4.5215 H         1 UNK         0.0832 
    145 H145      -44.0316  -25.7602    4.6382 H         1 UNK         0.0832 
    146 H146      -45.3321  -25.0656    3.6845 H         1 UNK         0.0832 
    147 H147      -45.0649  -25.8097    7.6566 H         1 UNK         0.3156 
    148 H148      -42.2470  -24.3447    8.6160 H         1 UNK         0.0589 
    149 H149      -42.9629  -23.3707   10.7953 H         1 UNK         0.0808 
    150 H150      -44.5745  -23.0851   10.1459 H         1 UNK         0.0808 
    151 H151      -43.1925  -22.2351    9.4772 H         1 UNK         0.0808 
    152 H152      -44.3729  -25.5765   10.2100 H         1 UNK         0.3098 
    153 H153      -43.8438  -28.8254    8.9683 H         1 UNK         0.0720 
    154 H154      -41.8972  -28.7511   10.5410 H         1 UNK         0.0791 
    155 H155      -43.2911  -29.5094   11.2906 H         1 UNK         0.0791 
    156 H156      -42.8575  -27.8499   11.7059 H         1 UNK         0.0791 
    157 H157      -45.2896  -27.9164   11.2409 H         1 UNK         0.3028 
@<TRIPOS>BOND
     1    1    2 1    
     2    1   82 1    
     3    1   83 1    
     4    1   84 1    
     5    2    3 2    
     6    2    4 am   BACKBONE|DICT|INTERRES
     7    4    5 1    
     8    4   85 1    
     9    5    6 1    
    10    5   80 1    
    11    5   86 1    
    12    6    7 1    
    13    6   87 1    
    14    6   88 1    
    15    7    8 1    
    16    8    9 1    
    17    8   89 1    
    18    8   90 1    
    19    9   10 ar   
    20    9   14 ar   
    21   10   11 ar   
    22   10   91 1    
    23   11   12 ar   
    24   11   58 1    
    25   12   13 ar   
    26   12   92 1    
    27   13   14 ar   
    28   13   15 1    
    29   14   93 1    
    30   15   16 1    
    31   15   94 1    
    32   15   95 1    
    33   16   17 1    
    34   17   18 1    
    35   17   96 1    
    36   17   97 1    
    37   18   19 1    
    38   18   22 1    
    39   18   98 1    
    40   19   20 am   BACKBONE|DICT|INTERRES
    41   19   21 2    
    42   20   99 1    
    43   20  100 1    
    44   22   23 am   BACKBONE|DICT|INTERRES
    45   22  101 1    
    46   23   24 2    
    47   23   25 1    
    48   25   26 1    
    49   25   27 1    
    50   25  102 1    
    51   26  103 1    
    52   26  104 1    
    53   26  105 1    
    54   27   28 am   BACKBONE|DICT|INTERRES
    55   27  106 1    
    56   28   29 2    
    57   28   30 1    
    58   30   31 1    
    59   30   32 1    
    60   30  107 1    
    61   31  108 1    
    62   31  109 1    
    63   31  110 1    
    64   32   33 am   BACKBONE|DICT|INTERRES
    65   32  111 1    
    66   33   34 2    
    67   33   35 1    
    68   35   36 1    
    69   35   37 1    
    70   35  112 1    
    71   36  113 1    
    72   36  114 1    
    73   36  115 1    
    74   37   38 am   BACKBONE|DICT|INTERRES
    75   37  116 1    
    76   38   39 2    
    77   38   40 1    
    78   40   41 1    
    79   40   42 1    
    80   40  117 1    
    81   41  118 1    
    82   41  119 1    
    83   41  120 1    
    84   42   43 am   BACKBONE|DICT|INTERRES
    85   42  121 1    
    86   43   44 2    
    87   43   45 1    
    88   45   46 1    
    89   45   47 1    
    90   45  122 1    
    91   46  123 1    
    92   46  124 1    
    93   46  125 1    
    94   47   48 am   BACKBONE|DICT|INTERRES
    95   47  126 1    
    96   48   49 2    
    97   48   50 1    
    98   50   51 1    
    99   50   52 1    
   100   50  127 1    
   101   51  128 1    
   102   51  129 1    
   103   51  130 1    
   104   52   53 am   BACKBONE|DICT|INTERRES
   105   52  131 1    
   106   53   54 2    
   107   53   55 1    
   108   55   56 1    
   109   55   59 1    
   110   55  132 1    
   111   56   57 1    
   112   56  133 1    
   113   56  134 1    
   114   57   58 1    
   115   58  135 1    
   116   58  136 1    
   117   59   60 am   BACKBONE|DICT|INTERRES
   118   59  137 1    
   119   60   61 2    
   120   60   62 1    
   121   62   63 1    
   122   62   64 1    
   123   62  138 1    
   124   63  139 1    
   125   63  140 1    
   126   63  141 1    
   127   64   65 am   BACKBONE|DICT|INTERRES
   128   64  142 1    
   129   65   66 2    
   130   65   67 1    
   131   67   68 1    
   132   67   69 1    
   133   67  143 1    
   134   68  144 1    
   135   68  145 1    
   136   68  146 1    
   137   69   70 am   BACKBONE|DICT|INTERRES
   138   69  147 1    
   139   70   71 2    
   140   70   72 1    
   141   72   73 1    
   142   72   74 1    
   143   72  148 1    
   144   73  149 1    
   145   73  150 1    
   146   73  151 1    
   147   74   75 am   BACKBONE|DICT|INTERRES
   148   74  152 1    
   149   75   76 2    
   150   75   77 1    
   151   77   78 1    
   152   77   79 1    
   153   77  153 1    
   154   78  154 1    
   155   78  155 1    
   156   78  156 1    
   157   79   80 am   BACKBONE|DICT|INTERRES
   158   79  157 1    
   159   80   81 2    
@<TRIPOS>SUBSTRUCTURE
     1 UNK         1 GROUP             0       ****    0 ROOT    
