@<TRIPOS>MOLECULE
3R207
157   159    1
SMALL
USER_CHARGES


@<TRIPOS>ATOM
      1 CA        -44.4278  -28.3867    5.3556 C.3       0 UNK        -0.1975 
      2 C         -45.9132  -28.0670    5.2958 C.2       0 UNK         0.4852 
      3 O         -46.3205  -27.1946    4.5279 O.2       0 UNK        -0.5216 
      4 N         -46.7327  -28.7634    6.0955 N.am      1 UNK        -0.4461 
      5 CA        -48.1858  -28.5762    6.1398 C.3       1 UNK         0.0864 
      6 C6        -48.9008  -29.7368    6.8746 C.3       14 UNK        -0.0898 
      7 S7        -50.5382  -30.0819    6.1491 S.3       14 UNK        -0.2598 
      8 C8        -51.0857  -31.5055    7.1444 C.3       14 UNK         0.0286 
      9 C9        -51.5656  -31.0600    8.5161 C.ar      14 UNK        -0.0844 
     10 C10       -50.6875  -31.0494    9.6021 C.ar      14 UNK        -0.0881 
     11 C11       -51.1003  -30.5616   10.8464 C.ar      14 UNK        -0.0643 
     12 C12       -52.4224  -30.1317   11.0093 C.ar      14 UNK        -0.0930 
     13 C13       -53.3220  -30.1785    9.9393 C.ar      14 UNK        -0.0827 
     14 C14       -52.8851  -30.6369    8.6937 C.ar      14 UNK        -0.1249 
     15 C15       -54.7655  -29.7340   10.1174 C.3       14 UNK         0.0141 
     16 S16       -54.9985  -28.0346    9.5199 S.3       14 UNK        -0.2313 
     17 C17       -56.8010  -27.8168    9.6902 C.3       14 UNK        -0.0915 
     18 CA        -57.1729  -26.8764   10.8670 C.3       13 UNK         0.0968 
     19 C         -58.6620  -26.4283   10.7883 C.2       13 UNK         0.5732 
     20 N         -59.4991  -26.7043   11.7818 N.am      13 UNK        -0.7310 
     21 O         -59.0643  -25.8046    9.8089 O.2       13 UNK        -0.5035 
     22 N         -56.7900  -27.4631   12.1617 N.am      13 UNK        -0.4233 
     23 C         -56.4407  -26.7621   13.2462 C.2       13 UNK         0.4989 
     24 O         -56.3846  -25.5307   13.2741 O.2       13 UNK        -0.4996 
     25 CA        -56.1195  -27.5765   14.5116 C.3       12 UNK         0.0216 
     26 CB        -55.4073  -28.9121   14.2077 C.3       12 UNK        -0.1964 
     27 N         -55.2655  -26.7922   15.3969 N.am      12 UNK        -0.4276 
     28 C         -55.4326  -26.6063   16.7093 C.2       12 UNK         0.5020 
     29 O         -56.3991  -27.0226   17.3524 O.2       12 UNK        -0.5489 
     30 CA        -54.2755  -25.8699   17.4135 C.3       11 UNK         0.0294 
     31 CB        -54.4848  -25.6992   18.9333 C.3       11 UNK        -0.2019 
     32 N         -52.9904  -26.5183   17.1159 N.am      11 UNK        -0.4493 
     33 C         -52.6286  -27.7789   17.4059 C.2       11 UNK         0.4932 
     34 O         -53.2824  -28.5389   18.1209 O.2       11 UNK        -0.5029 
     35 CA        -51.3351  -28.3117   16.7644 C.3       10 UNK         0.0280 
     36 CB        -51.6757  -29.2941   15.6313 C.3       10 UNK        -0.1976 
     37 N         -50.4647  -27.2592   16.2353 N.am      10 UNK        -0.4242 
     38 C         -49.6370  -26.5143   16.9804 C.2       10 UNK         0.5072 
     39 O         -49.5004  -26.6479   18.1974 O.2       10 UNK        -0.5224 
     40 CA        -48.8343  -25.4252   16.2475 C.3       9 UNK         0.0343 
     41 CB        -47.6277  -26.0350   15.5160 C.3       9 UNK        -0.2003 
     42 N         -49.6415  -24.6507   15.3016 N.am      9 UNK        -0.4272 
     43 C         -50.6757  -23.8668   15.6410 C.2       9 UNK         0.4988 
     44 O         -51.0684  -23.7046   16.7962 O.2       9 UNK        -0.5108 
     45 CA        -51.4125  -23.1570   14.4954 C.3       8 UNK         0.0248 
     46 CB        -50.6596  -21.8881   14.0640 C.3       8 UNK        -0.2001 
     47 N         -51.6131  -24.0314   13.3399 N.am      8 UNK        -0.4140 
     48 C         -52.4587  -25.0707   13.3191 C.2       8 UNK         0.5028 
     49 O         -53.1700  -25.3962   14.2681 O.2       8 UNK        -0.5428 
     50 CA        -52.4809  -25.9145   12.0343 C.3       7 UNK         0.0264 
     51 CB        -53.2471  -25.1737   10.9266 C.3       7 UNK        -0.1988 
     52 N         -51.1403  -26.2563   11.5525 N.am      7 UNK        -0.4454 
     53 C         -50.2072  -26.9104   12.2617 C.2       7 UNK         0.5027 
     54 O         -50.3787  -27.3179   13.4100 O.2       7 UNK        -0.5083 
     55 CA        -48.8253  -27.0766   11.5979 C.3       6 UNK         0.0844 
     56 C56       -48.7835  -28.3297   10.6912 C.3       14 UNK        -0.0967 
     57 S57       -48.4605  -29.8803   11.6023 S.3       14 UNK        -0.2604 
     58 C58       -50.1320  -30.4952   12.0234 C.3       14 UNK         0.0134 
     59 N         -48.3943  -25.8702   10.8802 N.am      6 UNK        -0.4116 
     60 C         -48.2637  -24.6493   11.4266 C.2       5 UNK         0.5034 
     61 O         -48.5521  -24.3903   12.5970 O.2       5 UNK        -0.5045 
     62 CA        -47.7488  -23.5281   10.5042 C.3       5 UNK         0.0224 
     63 CB        -47.1745  -22.3254   11.2832 C.3       5 UNK        -0.1978 
     64 N         -46.7958  -24.0076    9.4963 N.am      5 UNK        -0.4737 
     65 C         -45.5973  -24.5770    9.7080 C.2       4 UNK         0.5027 
     66 O         -45.1010  -24.7295   10.8241 O.2       4 UNK        -0.5211 
     67 CA        -44.8254  -25.0907    8.4772 C.3       4 UNK         0.0297 
     68 CB        -44.5509  -26.5997    8.5997 C.3       4 UNK        -0.1993 
     69 N         -45.5359  -24.8313    7.2216 N.am      4 UNK        -0.4486 
     70 C         -45.4312  -23.7024    6.5054 C.2       3 UNK         0.4961 
     71 O         -44.6315  -22.8025    6.7621 O.2       3 UNK        -0.5105 
     72 CA        -46.4029  -23.5227    5.3238 C.3       3 UNK         0.0299 
     73 CB        -45.7021  -23.8322    3.9914 C.3       3 UNK        -0.1972 
     74 N         -47.6234  -24.3298    5.4447 N.am      3 UNK        -0.4305 
     75 C         -48.6000  -24.0911    6.3355 C.2       2 UNK         0.5006 
     76 O         -48.5713  -23.1597    7.1391 O.2       2 UNK        -0.5106 
     77 CA        -49.7816  -25.0781    6.3857 C.3       2 UNK         0.0296 
     78 CB        -50.9193  -24.6069    5.4667 C.3       2 UNK        -0.2002 
     79 N         -49.4110  -26.4533    6.0419 N.am      2 UNK        -0.4032 
     80 C         -48.5397  -27.1976    6.7356 C.2       1 UNK         0.5000 
     81 O         -47.9964  -26.8179    7.7790 O.2       1 UNK        -0.5238 
     82 H82       -44.1793  -29.0068    6.2167 H         1 UNK         0.0889 
     83 H83       -43.8475  -27.4666    5.4186 H         1 UNK         0.0889 
     84 H84       -44.1243  -28.9168    4.4534 H         1 UNK         0.0889 
     85 H85       -46.3517  -29.4482    6.7322 H         1 UNK         0.3028 
     86 H86       -48.5107  -28.5862    5.0964 H         1 UNK         0.0864 
     87 H87       -48.9947  -29.5403    7.9431 H         1 UNK         0.0720 
     88 H88       -48.3188  -30.6560    6.7885 H         1 UNK         0.0720 
     89 H89       -50.2775  -32.2333    7.2322 H         1 UNK         0.0814 
     90 H90       -51.8960  -32.0130    6.6188 H         1 UNK         0.0814 
     91 H91       -49.6689  -31.3873    9.4696 H         1 UNK         0.1469 
     92 H92       -52.7521  -29.7605   11.9700 H         1 UNK         0.1381 
     93 H93       -53.5702  -30.6488    7.8568 H         1 UNK         0.1206 
     94 H94       -55.0583  -29.7962   11.1659 H         1 UNK         0.0813 
     95 H95       -55.4257  -30.4076    9.5689 H         1 UNK         0.0813 
     96 H96       -57.1544  -27.4056    8.7428 H         1 UNK         0.0638 
     97 H97       -57.2900  -28.7864    9.7986 H         1 UNK         0.0638 
     98 H98       -56.5983  -25.9579   10.7331 H         1 UNK         0.0568 
     99 H99       -59.1851  -27.2087   12.5943 H         1 UNK         0.3450 
    100 H100      -60.4579  -26.4009   11.7153 H         1 UNK         0.3450 
    101 H101      -56.8399  -28.4681   12.2237 H         1 UNK         0.2987 
    102 H102      -57.0711  -27.7870   15.0036 H         1 UNK         0.0766 
    103 H103      -54.5134  -28.7618   13.6009 H         1 UNK         0.0798 
    104 H104      -55.0994  -29.4103   15.1277 H         1 UNK         0.0798 
    105 H105      -56.0592  -29.6078   13.6790 H         1 UNK         0.0798 
    106 H106      -54.4826  -26.3136   14.9439 H         1 UNK         0.3198 
    107 H107      -54.2266  -24.8727   16.9727 H         1 UNK         0.0843 
    108 H108      -55.3879  -25.1226   19.1365 H         1 UNK         0.0831 
    109 H109      -53.6499  -25.1679   19.3900 H         1 UNK         0.0831 
    110 H110      -54.5929  -26.6570   19.4426 H         1 UNK         0.0831 
    111 H111      -52.3867  -25.9984   16.4922 H         1 UNK         0.3133 
    112 H112      -50.7901  -28.8621   17.5342 H         1 UNK         0.0566 
    113 H113      -50.7734  -29.7428   15.2165 H         1 UNK         0.0814 
    114 H114      -52.3060  -30.1083   15.9914 H         1 UNK         0.0814 
    115 H115      -52.2116  -28.8010   14.8192 H         1 UNK         0.0814 
    116 H116      -50.4770  -27.1240   15.2245 H         1 UNK         0.3091 
    117 H117      -48.4567  -24.7297   16.9999 H         1 UNK         0.0702 
    118 H118      -47.0263  -25.2656   15.0311 H         1 UNK         0.0785 
    119 H119      -47.9378  -26.7475   14.7517 H         1 UNK         0.0785 
    120 H120      -46.9776  -26.5662   16.2124 H         1 UNK         0.0785 
    121 H121      -49.3624  -24.6888   14.3245 H         1 UNK         0.2998 
    122 H122      -52.3955  -22.8578   14.8661 H         1 UNK         0.0697 
    123 H123      -49.6637  -22.1163   13.6835 H         1 UNK         0.0825 
    124 H124      -50.5364  -21.2051   14.9057 H         1 UNK         0.0825 
    125 H125      -51.2015  -21.3486   13.2871 H         1 UNK         0.0825 
    126 H126      -51.0187  -23.8733   12.5396 H         1 UNK         0.3029 
    127 H127      -53.0021  -26.8492   12.2526 H         1 UNK         0.0897 
    128 H128      -53.2703  -25.7497   10.0024 H         1 UNK         0.0792 
    129 H129      -52.8028  -24.2041   10.6987 H         1 UNK         0.0792 
    130 H130      -54.2814  -24.9966   11.2251 H         1 UNK         0.0792 
    131 H131      -50.9056  -25.9572   10.6178 H         1 UNK         0.3086 
    132 H132      -48.0971  -27.2129   12.3996 H         1 UNK         0.0583 
    133 H133      -49.6755  -28.4095   10.0678 H         1 UNK         0.1020 
    134 H134      -47.9543  -28.2402    9.9881 H         1 UNK         0.1020 
    135 H135      -50.0356  -31.4946   12.4491 H         1 UNK         0.0694 
    136 H136      -50.5409  -29.8685   12.8149 H         1 UNK         0.0694 
    137 H137      -48.1348  -25.9933    9.9087 H         1 UNK         0.2989 
    138 H138      -48.6206  -23.1724    9.9527 H         1 UNK         0.1055 
    139 H139      -47.9367  -21.8676   11.9143 H         1 UNK         0.0806 
    140 H140      -46.8102  -21.5521   10.6070 H         1 UNK         0.0806 
    141 H141      -46.3503  -22.6191   11.9339 H         1 UNK         0.0806 
    142 H142      -47.1084  -23.9078    8.5375 H         1 UNK         0.3061 
    143 H143      -43.8629  -24.5749    8.4657 H         1 UNK         0.0734 
    144 H144      -43.9073  -26.9481    7.7940 H         1 UNK         0.0832 
    145 H145      -44.0382  -26.8320    9.5341 H         1 UNK         0.0832 
    146 H146      -45.4703  -27.1852    8.5814 H         1 UNK         0.0832 
    147 H147      -46.2408  -25.5082    6.9585 H         1 UNK         0.3156 
    148 H148      -46.7004  -22.4719    5.3063 H         1 UNK         0.0589 
    149 H149      -45.3330  -24.8569    3.9531 H         1 UNK         0.0808 
    150 H150      -46.3713  -23.6826    3.1440 H         1 UNK         0.0808 
    151 H151      -44.8434  -23.1757    3.8441 H         1 UNK         0.0808 
    152 H152      -47.6917  -25.1405    4.8430 H         1 UNK         0.3098 
    153 H153      -50.1553  -25.0854    7.4119 H         1 UNK         0.0720 
    154 H154      -51.7975  -25.2459    5.5624 H         1 UNK         0.0791 
    155 H155      -50.6182  -24.6026    4.4183 H         1 UNK         0.0791 
    156 H156      -51.2307  -23.5924    5.7205 H         1 UNK         0.0791 
    157 H157      -49.8210  -26.8376    5.2024 H         1 UNK         0.3028 
@<TRIPOS>BOND
     1    1    2 1    
     2    1   82 1    
     3    1   83 1    
     4    1   84 1    
     5    2    3 2    
     6    2    4 am   BACKBONE|DICT|INTERRES
     7    4    5 1    
     8    4   85 1    
     9    5    6 1    
    10    5   80 1    
    11    5   86 1    
    12    6    7 1    
    13    6   87 1    
    14    6   88 1    
    15    7    8 1    
    16    8    9 1    
    17    8   89 1    
    18    8   90 1    
    19    9   10 ar   
    20    9   14 ar   
    21   10   11 ar   
    22   10   91 1    
    23   11   12 ar   
    24   11   58 1    
    25   12   13 ar   
    26   12   92 1    
    27   13   14 ar   
    28   13   15 1    
    29   14   93 1    
    30   15   16 1    
    31   15   94 1    
    32   15   95 1    
    33   16   17 1    
    34   17   18 1    
    35   17   96 1    
    36   17   97 1    
    37   18   19 1    
    38   18   22 1    
    39   18   98 1    
    40   19   20 am   BACKBONE|DICT|INTERRES
    41   19   21 2    
    42   20   99 1    
    43   20  100 1    
    44   22   23 am   BACKBONE|DICT|INTERRES
    45   22  101 1    
    46   23   24 2    
    47   23   25 1    
    48   25   26 1    
    49   25   27 1    
    50   25  102 1    
    51   26  103 1    
    52   26  104 1    
    53   26  105 1    
    54   27   28 am   BACKBONE|DICT|INTERRES
    55   27  106 1    
    56   28   29 2    
    57   28   30 1    
    58   30   31 1    
    59   30   32 1    
    60   30  107 1    
    61   31  108 1    
    62   31  109 1    
    63   31  110 1    
    64   32   33 am   BACKBONE|DICT|INTERRES
    65   32  111 1    
    66   33   34 2    
    67   33   35 1    
    68   35   36 1    
    69   35   37 1    
    70   35  112 1    
    71   36  113 1    
    72   36  114 1    
    73   36  115 1    
    74   37   38 am   BACKBONE|DICT|INTERRES
    75   37  116 1    
    76   38   39 2    
    77   38   40 1    
    78   40   41 1    
    79   40   42 1    
    80   40  117 1    
    81   41  118 1    
    82   41  119 1    
    83   41  120 1    
    84   42   43 am   BACKBONE|DICT|INTERRES
    85   42  121 1    
    86   43   44 2    
    87   43   45 1    
    88   45   46 1    
    89   45   47 1    
    90   45  122 1    
    91   46  123 1    
    92   46  124 1    
    93   46  125 1    
    94   47   48 am   BACKBONE|DICT|INTERRES
    95   47  126 1    
    96   48   49 2    
    97   48   50 1    
    98   50   51 1    
    99   50   52 1    
   100   50  127 1    
   101   51  128 1    
   102   51  129 1    
   103   51  130 1    
   104   52   53 am   BACKBONE|DICT|INTERRES
   105   52  131 1    
   106   53   54 2    
   107   53   55 1    
   108   55   56 1    
   109   55   59 1    
   110   55  132 1    
   111   56   57 1    
   112   56  133 1    
   113   56  134 1    
   114   57   58 1    
   115   58  135 1    
   116   58  136 1    
   117   59   60 am   BACKBONE|DICT|INTERRES
   118   59  137 1    
   119   60   61 2    
   120   60   62 1    
   121   62   63 1    
   122   62   64 1    
   123   62  138 1    
   124   63  139 1    
   125   63  140 1    
   126   63  141 1    
   127   64   65 am   BACKBONE|DICT|INTERRES
   128   64  142 1    
   129   65   66 2    
   130   65   67 1    
   131   67   68 1    
   132   67   69 1    
   133   67  143 1    
   134   68  144 1    
   135   68  145 1    
   136   68  146 1    
   137   69   70 am   BACKBONE|DICT|INTERRES
   138   69  147 1    
   139   70   71 2    
   140   70   72 1    
   141   72   73 1    
   142   72   74 1    
   143   72  148 1    
   144   73  149 1    
   145   73  150 1    
   146   73  151 1    
   147   74   75 am   BACKBONE|DICT|INTERRES
   148   74  152 1    
   149   75   76 2    
   150   75   77 1    
   151   77   78 1    
   152   77   79 1    
   153   77  153 1    
   154   78  154 1    
   155   78  155 1    
   156   78  156 1    
   157   79   80 am   BACKBONE|DICT|INTERRES
   158   79  157 1    
   159   80   81 2    
@<TRIPOS>SUBSTRUCTURE
     1 UNK         1 GROUP             0       ****    0 ROOT    
