@<TRIPOS>MOLECULE
3R207
157   159    1
SMALL
USER_CHARGES


@<TRIPOS>ATOM
      1 CA        -53.4790  -26.3729    8.7192 C.3       0 UNK        -0.1975 
      2 C         -52.7010  -26.8881    7.5167 C.2       0 UNK         0.4852 
      3 O         -53.0199  -26.5272    6.3835 O.2       0 UNK        -0.5216 
      4 N         -51.6695  -27.7097    7.7531 N.am      1 UNK        -0.4461 
      5 CA        -50.8010  -28.3813    6.7729 C.3       1 UNK         0.0864 
      6 C6        -51.5714  -29.3510    5.8312 C.3       14 UNK        -0.0898 
      7 S7        -50.5318  -30.7399    5.2513 S.3       14 UNK        -0.2598 
      8 C8        -51.0004  -32.0981    6.3802 C.3       14 UNK         0.0286 
      9 C9        -50.9062  -31.6879    7.8434 C.ar      14 UNK        -0.0844 
     10 C10       -49.6717  -31.3421    8.4031 C.ar      14 UNK        -0.0881 
     11 C11       -49.6035  -30.8355    9.7039 C.ar      14 UNK        -0.0643 
     12 C12       -50.7686  -30.7461   10.4700 C.ar      14 UNK        -0.0930 
     13 C13       -52.0003  -31.1357    9.9375 C.ar      14 UNK        -0.0827 
     14 C14       -52.0647  -31.5981    8.6209 C.ar      14 UNK        -0.1249 
     15 C15       -53.2631  -31.0361   10.7766 C.3       14 UNK         0.0141 
     16 S16       -53.9246  -29.3452   10.7527 S.3       14 UNK        -0.2313 
     17 C17       -55.3925  -29.5480   11.8135 C.3       14 UNK        -0.0915 
     18 CA        -56.3193  -28.3079   11.7610 C.3       13 UNK         0.0968 
     19 C         -57.6588  -28.5781   12.4979 C.2       13 UNK         0.5732 
     20 N         -58.6344  -29.1571   11.8108 N.am      13 UNK        -0.7310 
     21 O         -57.8125  -28.3095   13.6875 O.2       13 UNK        -0.5035 
     22 N         -55.6340  -27.1076   12.2574 N.am      13 UNK        -0.4233 
     23 C         -56.0259  -25.8520   12.0131 C.2       13 UNK         0.4989 
     24 O         -57.0100  -25.5654   11.3282 O.2       13 UNK        -0.4996 
     25 CA        -55.1393  -24.7304   12.5878 C.3       12 UNK         0.0216 
     26 CB        -55.8410  -23.3557   12.6267 C.3       12 UNK        -0.1964 
     27 N         -54.5416  -25.0618   13.8864 N.am      12 UNK        -0.4276 
     28 C         -55.1677  -25.2617   15.0550 C.2       12 UNK         0.5020 
     29 O         -56.3883  -25.1802   15.2049 O.2       12 UNK        -0.5489 
     30 CA        -54.2634  -25.5880   16.2626 C.3       11 UNK         0.0294 
     31 CB        -55.0533  -26.0931   17.4891 C.3       11 UNK        -0.2019 
     32 N         -53.1610  -26.5048   15.9433 N.am      11 UNK        -0.4493 
     33 C         -53.2543  -27.7629   15.4836 C.2       11 UNK         0.4932 
     34 O         -54.3254  -28.3197   15.2427 O.2       11 UNK        -0.5029 
     35 CA        -51.9486  -28.5461   15.2358 C.3       10 UNK         0.0280 
     36 CB        -51.9120  -29.1204   13.8131 C.3       10 UNK        -0.1976 
     37 N         -50.7327  -27.7597   15.4472 N.am      10 UNK        -0.4242 
     38 C         -50.1316  -27.5635   16.6275 C.2       10 UNK         0.5072 
     39 O         -50.5149  -28.0625   17.6861 O.2       10 UNK        -0.5224 
     40 CA        -48.9171  -26.6165   16.6337 C.3       9 UNK         0.0343 
     41 CB        -47.6285  -27.3843   16.2995 C.3       9 UNK        -0.2003 
     42 N         -49.0649  -25.4779   15.7197 N.am      9 UNK        -0.4272 
     43 C         -50.0286  -24.5486   15.8170 C.2       9 UNK         0.4988 
     44 O         -50.8809  -24.5348   16.7057 O.2       9 UNK        -0.5108 
     45 CA        -50.0889  -23.4842   14.7108 C.3       8 UNK         0.0248 
     46 CB        -49.0061  -22.4148   14.9251 C.3       8 UNK        -0.2001 
     47 N         -49.9781  -24.0561   13.3661 N.am      8 UNK        -0.4140 
     48 C         -50.8511  -24.9279   12.8393 C.2       8 UNK         0.5028 
     49 O         -51.8678  -25.3085   13.4160 O.2       8 UNK        -0.5428 
     50 CA        -50.5221  -25.5174   11.4603 C.3       7 UNK         0.0264 
     51 CB        -50.8499  -24.5192   10.3395 C.3       7 UNK        -0.1988 
     52 N         -49.1302  -25.9505   11.3517 N.am      7 UNK        -0.4454 
     53 C         -48.5617  -26.8961   12.1163 C.2       7 UNK         0.5027 
     54 O         -49.1642  -27.5318   12.9820 O.2       7 UNK        -0.5083 
     55 CA        -47.0463  -27.1252   11.9276 C.3       6 UNK         0.0844 
     56 C56       -46.6246  -28.1192   10.7945 C.3       14 UNK        -0.0967 
     57 S57       -47.8989  -28.6808    9.6060 S.3       14 UNK        -0.2604 
     58 C58       -48.2831  -30.3344   10.2638 C.3       14 UNK         0.0134 
     59 N         -46.3420  -25.8430   11.8350 N.am      6 UNK        -0.4116 
     60 C         -46.2015  -24.9778   12.8503 C.2       5 UNK         0.5034 
     61 O         -46.6315  -25.1721   13.9879 O.2       5 UNK        -0.5045 
     62 CA        -45.4880  -23.6546   12.5301 C.3       5 UNK         0.0224 
     63 CB        -43.9627  -23.8443   12.5257 C.3       5 UNK        -0.1978 
     64 N         -45.9179  -23.0725   11.2555 N.am      5 UNK        -0.4737 
     65 C         -47.1520  -22.6034   11.0266 C.2       4 UNK         0.5027 
     66 O         -48.0504  -22.6062   11.8652 O.2       4 UNK        -0.5211 
     67 CA        -47.4481  -22.0746    9.6155 C.3       4 UNK         0.0297 
     68 CB        -46.9834  -20.6161    9.4790 C.3       4 UNK        -0.1993 
     69 N         -46.8703  -22.8804    8.5352 N.am      4 UNK        -0.4486 
     70 C         -47.1045  -24.1838    8.3341 C.2       3 UNK         0.4961 
     71 O         -47.7464  -24.9014    9.1035 O.2       3 UNK        -0.5105 
     72 CA        -46.5308  -24.7903    7.0468 C.3       3 UNK         0.0299 
     73 CB        -45.5829  -25.9579    7.3646 C.3       3 UNK        -0.1972 
     74 N         -47.6152  -25.2677    6.1919 N.am      3 UNK        -0.4305 
     75 C         -48.5086  -24.4983    5.5584 C.2       2 UNK         0.5006 
     76 O         -48.4556  -23.2678    5.5416 O.2       2 UNK        -0.5106 
     77 CA        -49.6594  -25.2047    4.8152 C.3       2 UNK         0.0296 
     78 CB        -49.2016  -25.6981    3.4287 C.3       2 UNK        -0.2002 
     79 N         -50.3292  -26.2752    5.5704 N.am      2 UNK        -0.4032 
     80 C         -49.8428  -27.4483    5.9995 C.2       1 UNK         0.5000 
     81 O         -48.6746  -27.8022    5.8266 O.2       1 UNK        -0.5238 
     82 H82       -53.0034  -26.6454    9.6605 H         1 UNK         0.0889 
     83 H83       -54.4869  -26.7874    8.7182 H         1 UNK         0.0889 
     84 H84       -53.5575  -25.2870    8.6809 H         1 UNK         0.0889 
     85 H85       -51.4599  -27.9507    8.7122 H         1 UNK         0.3028 
     86 H86       -50.1451  -28.9771    7.4032 H         1 UNK         0.0864 
     87 H87       -51.9723  -28.8208    4.9654 H         1 UNK         0.0720 
     88 H88       -52.4400  -29.7670    6.3436 H         1 UNK         0.0720 
     89 H89       -50.3460  -32.9523    6.2019 H         1 UNK         0.0814 
     90 H90       -52.0106  -32.4286    6.1336 H         1 UNK         0.0814 
     91 H91       -48.7754  -31.3926    7.7996 H         1 UNK         0.1469 
     92 H92       -50.7199  -30.3518   11.4741 H         1 UNK         0.1381 
     93 H93       -53.0223  -31.8649    8.1948 H         1 UNK         0.1206 
     94 H94       -53.0510  -31.3352   11.8038 H         1 UNK         0.0813 
     95 H95       -54.0210  -31.7271   10.4044 H         1 UNK         0.0813 
     96 H96       -55.0695  -29.7461   12.8370 H         1 UNK         0.0638 
     97 H97       -55.9288  -30.4380   11.4789 H         1 UNK         0.0638 
     98 H98       -56.5626  -28.1259   10.7119 H         1 UNK         0.0568 
     99 H99       -59.5073  -29.3553   12.2741 H         1 UNK         0.3450 
    100 H100      -58.5187  -29.3947   10.8380 H         1 UNK         0.3450 
    101 H101      -54.8577  -27.2669   12.8823 H         1 UNK         0.2987 
    102 H102      -54.2998  -24.6418   11.8965 H         1 UNK         0.0766 
    103 H103      -55.1786  -22.5833   13.0175 H         1 UNK         0.0798 
    104 H104      -56.7376  -23.3753   13.2468 H         1 UNK         0.0798 
    105 H105      -56.1456  -23.0435   11.6271 H         1 UNK         0.0798 
    106 H106      -53.5243  -25.1771   13.8643 H         1 UNK         0.3198 
    107 H107      -53.7932  -24.6444   16.5441 H         1 UNK         0.0843 
    108 H108      -55.5989  -27.0111   17.2683 H         1 UNK         0.0831 
    109 H109      -55.7841  -25.3522   17.8156 H         1 UNK         0.0831 
    110 H110      -54.3927  -26.2889   18.3337 H         1 UNK         0.0831 
    111 H111      -52.2331  -26.1167   16.0704 H         1 UNK         0.3133 
    112 H112      -51.9468  -29.3869   15.9322 H         1 UNK         0.0566 
    113 H113      -51.0033  -29.6995   13.6523 H         1 UNK         0.0814 
    114 H114      -52.7554  -29.7880   13.6399 H         1 UNK         0.0814 
    115 H115      -51.9497  -28.3336   13.0583 H         1 UNK         0.0814 
    116 H116      -50.3079  -27.3591   14.6151 H         1 UNK         0.3091 
    117 H117      -48.8202  -26.2142   17.6442 H         1 UNK         0.0702 
    118 H118      -46.7516  -26.7419   16.3832 H         1 UNK         0.0785 
    119 H119      -47.6507  -27.7884   15.2870 H         1 UNK         0.0785 
    120 H120      -47.4838  -28.2218   16.9831 H         1 UNK         0.0785 
    121 H121      -48.3802  -25.4011   14.9733 H         1 UNK         0.2998 
    122 H122      -51.0631  -22.9954   14.7777 H         1 UNK         0.0697 
    123 H123      -48.0026  -22.8261   14.8111 H         1 UNK         0.0825 
    124 H124      -49.0726  -21.9842   15.9251 H         1 UNK         0.0825 
    125 H125      -49.1134  -21.5963   14.2133 H         1 UNK         0.0825 
    126 H126      -49.1936  -23.7380   12.8002 H         1 UNK         0.3029 
    127 H127      -51.1475  -26.4023   11.3260 H         1 UNK         0.0897 
    128 H128      -50.2366  -23.6209   10.4089 H         1 UNK         0.0792 
    129 H129      -51.8934  -24.2055   10.3876 H         1 UNK         0.0792 
    130 H130      -50.6834  -24.9586    9.3556 H         1 UNK         0.0792 
    131 H131      -48.5692  -25.5117   10.6224 H         1 UNK         0.3086 
    132 H132      -46.7082  -27.5789   12.8623 H         1 UNK         0.0583 
    133 H133      -45.8104  -27.6976   10.2035 H         1 UNK         0.1020 
    134 H134      -46.1818  -29.0049   11.2531 H         1 UNK         0.1020 
    135 H135      -47.4787  -31.0262   10.0096 H         1 UNK         0.0694 
    136 H136      -48.3293  -30.2918   11.3535 H         1 UNK         0.0694 
    137 H137      -46.0281  -25.5627   10.9178 H         1 UNK         0.2989 
    138 H138      -45.7413  -22.9484   13.3244 H         1 UNK         0.1055 
    139 H139      -43.6202  -24.2655   13.4722 H         1 UNK         0.0806 
    140 H140      -43.4458  -22.8939   12.3916 H         1 UNK         0.0806 
    141 H141      -43.6375  -24.5185   11.7324 H         1 UNK         0.0806 
    142 H142      -45.2404  -23.0322   10.5075 H         1 UNK         0.3061 
    143 H143      -48.5317  -22.0954    9.4839 H         1 UNK         0.0734 
    144 H144      -47.2920  -20.1879    8.5251 H         1 UNK         0.0832 
    145 H145      -47.4158  -19.9945   10.2645 H         1 UNK         0.0832 
    146 H146      -45.8989  -20.5268    9.5535 H         1 UNK         0.0832 
    147 H147      -46.3395  -22.3789    7.8372 H         1 UNK         0.3156 
    148 H148      -45.9696  -24.0285    6.5018 H         1 UNK         0.0589 
    149 H149      -46.1061  -26.7774    7.8591 H         1 UNK         0.0808 
    150 H150      -45.1272  -26.3550    6.4574 H         1 UNK         0.0808 
    151 H151      -44.7734  -25.6395    8.0225 H         1 UNK         0.0808 
    152 H152      -47.7730  -26.2737    6.1605 H         1 UNK         0.3098 
    153 H153      -50.4285  -24.4484    4.6506 H         1 UNK         0.0720 
    154 H154      -50.0338  -26.1179    2.8635 H         1 UNK         0.0791 
    155 H155      -48.4269  -26.4621    3.5008 H         1 UNK         0.0791 
    156 H156      -48.7915  -24.8767    2.8397 H         1 UNK         0.0791 
    157 H157      -51.3121  -26.1113    5.7807 H         1 UNK         0.3028 
@<TRIPOS>BOND
     1    1    2 1    
     2    1   82 1    
     3    1   83 1    
     4    1   84 1    
     5    2    3 2    
     6    2    4 am   BACKBONE|DICT|INTERRES
     7    4    5 1    
     8    4   85 1    
     9    5    6 1    
    10    5   80 1    
    11    5   86 1    
    12    6    7 1    
    13    6   87 1    
    14    6   88 1    
    15    7    8 1    
    16    8    9 1    
    17    8   89 1    
    18    8   90 1    
    19    9   10 ar   
    20    9   14 ar   
    21   10   11 ar   
    22   10   91 1    
    23   11   12 ar   
    24   11   58 1    
    25   12   13 ar   
    26   12   92 1    
    27   13   14 ar   
    28   13   15 1    
    29   14   93 1    
    30   15   16 1    
    31   15   94 1    
    32   15   95 1    
    33   16   17 1    
    34   17   18 1    
    35   17   96 1    
    36   17   97 1    
    37   18   19 1    
    38   18   22 1    
    39   18   98 1    
    40   19   20 am   BACKBONE|DICT|INTERRES
    41   19   21 2    
    42   20   99 1    
    43   20  100 1    
    44   22   23 am   BACKBONE|DICT|INTERRES
    45   22  101 1    
    46   23   24 2    
    47   23   25 1    
    48   25   26 1    
    49   25   27 1    
    50   25  102 1    
    51   26  103 1    
    52   26  104 1    
    53   26  105 1    
    54   27   28 am   BACKBONE|DICT|INTERRES
    55   27  106 1    
    56   28   29 2    
    57   28   30 1    
    58   30   31 1    
    59   30   32 1    
    60   30  107 1    
    61   31  108 1    
    62   31  109 1    
    63   31  110 1    
    64   32   33 am   BACKBONE|DICT|INTERRES
    65   32  111 1    
    66   33   34 2    
    67   33   35 1    
    68   35   36 1    
    69   35   37 1    
    70   35  112 1    
    71   36  113 1    
    72   36  114 1    
    73   36  115 1    
    74   37   38 am   BACKBONE|DICT|INTERRES
    75   37  116 1    
    76   38   39 2    
    77   38   40 1    
    78   40   41 1    
    79   40   42 1    
    80   40  117 1    
    81   41  118 1    
    82   41  119 1    
    83   41  120 1    
    84   42   43 am   BACKBONE|DICT|INTERRES
    85   42  121 1    
    86   43   44 2    
    87   43   45 1    
    88   45   46 1    
    89   45   47 1    
    90   45  122 1    
    91   46  123 1    
    92   46  124 1    
    93   46  125 1    
    94   47   48 am   BACKBONE|DICT|INTERRES
    95   47  126 1    
    96   48   49 2    
    97   48   50 1    
    98   50   51 1    
    99   50   52 1    
   100   50  127 1    
   101   51  128 1    
   102   51  129 1    
   103   51  130 1    
   104   52   53 am   BACKBONE|DICT|INTERRES
   105   52  131 1    
   106   53   54 2    
   107   53   55 1    
   108   55   56 1    
   109   55   59 1    
   110   55  132 1    
   111   56   57 1    
   112   56  133 1    
   113   56  134 1    
   114   57   58 1    
   115   58  135 1    
   116   58  136 1    
   117   59   60 am   BACKBONE|DICT|INTERRES
   118   59  137 1    
   119   60   61 2    
   120   60   62 1    
   121   62   63 1    
   122   62   64 1    
   123   62  138 1    
   124   63  139 1    
   125   63  140 1    
   126   63  141 1    
   127   64   65 am   BACKBONE|DICT|INTERRES
   128   64  142 1    
   129   65   66 2    
   130   65   67 1    
   131   67   68 1    
   132   67   69 1    
   133   67  143 1    
   134   68  144 1    
   135   68  145 1    
   136   68  146 1    
   137   69   70 am   BACKBONE|DICT|INTERRES
   138   69  147 1    
   139   70   71 2    
   140   70   72 1    
   141   72   73 1    
   142   72   74 1    
   143   72  148 1    
   144   73  149 1    
   145   73  150 1    
   146   73  151 1    
   147   74   75 am   BACKBONE|DICT|INTERRES
   148   74  152 1    
   149   75   76 2    
   150   75   77 1    
   151   77   78 1    
   152   77   79 1    
   153   77  153 1    
   154   78  154 1    
   155   78  155 1    
   156   78  156 1    
   157   79   80 am   BACKBONE|DICT|INTERRES
   158   79  157 1    
   159   80   81 2    
@<TRIPOS>SUBSTRUCTURE
     1 UNK         1 GROUP             0       ****    0 ROOT    
