@<TRIPOS>MOLECULE
3R207
157   159    1
SMALL
USER_CHARGES


@<TRIPOS>ATOM
      1 CA        -46.7060  -31.1112    4.4652 C.3       0 UNK        -0.1975 
      2 C         -47.4370  -29.7895    4.6504 C.2       0 UNK         0.4852 
      3 O         -48.4598  -29.5598    4.0037 O.2       0 UNK        -0.5216 
      4 N         -46.9192  -28.9215    5.5243 N.am      1 UNK        -0.4461 
      5 CA        -47.4465  -27.5928    5.8240 C.3       1 UNK         0.0864 
      6 C6        -48.7304  -27.6394    6.7043 C.3       14 UNK        -0.0898 
      7 S7        -49.8521  -26.2543    6.3123 S.3       14 UNK        -0.2598 
      8 C8        -51.3229  -27.1271    5.6970 C.3       14 UNK         0.0286 
      9 C9        -52.3238  -27.3907    6.8123 C.ar      14 UNK        -0.0844 
     10 C10       -53.3331  -26.4581    7.0688 C.ar      14 UNK        -0.0881 
     11 C11       -54.3008  -26.7118    8.0429 C.ar      14 UNK        -0.0643 
     12 C12       -54.2575  -27.9120    8.7538 C.ar      14 UNK        -0.0930 
     13 C13       -53.2194  -28.8253    8.5591 C.ar      14 UNK        -0.0827 
     14 C14       -52.2605  -28.5640    7.5730 C.ar      14 UNK        -0.1249 
     15 C15       -53.1374  -30.0985    9.3971 C.3       14 UNK         0.0141 
     16 S16       -53.4427  -29.8109   11.1809 S.3       14 UNK        -0.2313 
     17 C17       -55.0802  -30.5751   11.4600 C.3       14 UNK        -0.0915 
     18 CA        -56.1691  -29.5805   11.9472 C.3       13 UNK         0.0968 
     19 C         -57.5463  -30.2958   12.0732 C.2       13 UNK         0.5732 
     20 N         -58.1083  -30.4591   13.2653 N.am      13 UNK        -0.7310 
     21 O         -58.1183  -30.7043   11.0655 O.2       13 UNK        -0.5035 
     22 N         -55.7466  -28.8475   13.1518 N.am      13 UNK        -0.4233 
     23 C         -56.2954  -27.7133   13.6000 C.2       13 UNK         0.4989 
     24 O         -57.2206  -27.1360   13.0293 O.2       13 UNK        -0.4996 
     25 CA        -55.7097  -27.0838   14.8789 C.3       12 UNK         0.0216 
     26 CB        -56.4436  -27.5970   16.1329 C.3       12 UNK        -0.1964 
     27 N         -54.2497  -27.1966   15.0242 N.am      12 UNK        -0.4276 
     28 C         -53.4982  -28.2934   15.2086 C.2       12 UNK         0.5020 
     29 O         -53.9616  -29.4333   15.2651 O.2       12 UNK        -0.5489 
     30 CA        -51.9731  -28.1087   15.3110 C.3       11 UNK         0.0294 
     31 CB        -51.2645  -28.7713   14.1190 C.3       11 UNK        -0.2019 
     32 N         -51.5518  -26.7071   15.4077 N.am      11 UNK        -0.4493 
     33 C         -51.6135  -25.9824   16.5361 C.2       11 UNK         0.4932 
     34 O         -52.0797  -26.4181   17.5904 O.2       11 UNK        -0.5029 
     35 CA        -51.0708  -24.5377   16.4840 C.3       10 UNK         0.0280 
     36 CB        -50.6894  -23.9929   17.8768 C.3       10 UNK        -0.1976 
     37 N         -49.9624  -24.3535   15.5401 N.am      10 UNK        -0.4242 
     38 C         -48.7858  -25.0024   15.5253 C.2       10 UNK         0.5072 
     39 O         -48.4535  -25.8363   16.3689 O.2       10 UNK        -0.5224 
     40 CA        -47.8147  -24.6948   14.3713 C.3       9 UNK         0.0343 
     41 CB        -47.3973  -25.9874   13.6540 C.3       9 UNK        -0.2003 
     42 N         -48.3969  -23.7722   13.3912 N.am      9 UNK        -0.4272 
     43 C         -47.9863  -22.5097   13.2099 C.2       9 UNK         0.4988 
     44 O         -47.0185  -22.0127   13.7877 O.2       9 UNK        -0.5108 
     45 CA        -48.7984  -21.6250   12.2462 C.3       8 UNK         0.0248 
     46 CB        -48.1404  -21.5771   10.8563 C.3       8 UNK        -0.2001 
     47 N         -50.2241  -21.9624   12.1215 N.am      8 UNK        -0.4140 
     48 C         -51.1083  -21.9037   13.1306 C.2       8 UNK         0.5028 
     49 O         -50.7919  -21.7663   14.3115 O.2       8 UNK        -0.5428 
     50 CA        -52.5935  -22.0111   12.7639 C.3       7 UNK         0.0264 
     51 CB        -53.0347  -20.8449   11.8619 C.3       7 UNK        -0.1988 
     52 N         -52.8894  -23.2798   12.1060 N.am      7 UNK        -0.4454 
     53 C         -53.2814  -24.3903   12.7424 C.2       7 UNK         0.5027 
     54 O         -53.4283  -24.4856   13.9622 O.2       7 UNK        -0.5083 
     55 CA        -53.5414  -25.6235   11.8570 C.3       6 UNK         0.0844 
     56 C56       -54.9034  -25.4990   11.1221 C.3       14 UNK        -0.0967 
     57 S57       -54.8661  -24.4900    9.5948 S.3       14 UNK        -0.2604 
     58 C58       -55.3908  -25.6911    8.3290 C.3       14 UNK         0.0134 
     59 N         -52.4186  -25.9592   10.9732 N.am      6 UNK        -0.4116 
     60 C         -51.1432  -26.1173   11.3569 C.2       5 UNK         0.5034 
     61 O         -50.7362  -25.9486   12.5121 O.2       5 UNK        -0.5045 
     62 CA        -50.1343  -26.4400   10.2468 C.3       5 UNK         0.0224 
     63 CB        -49.5694  -25.1292    9.6857 C.3       5 UNK        -0.1978 
     64 N         -49.0241  -27.2372   10.7673 N.am      5 UNK        -0.4737 
     65 C         -49.0729  -28.5560   10.9993 C.2       4 UNK         0.5027 
     66 O         -50.0287  -29.2627   10.6853 O.2       4 UNK        -0.5211 
     67 CA        -47.8589  -29.1888   11.7177 C.3       4 UNK         0.0297 
     68 CB        -47.7040  -30.6940   11.4114 C.3       4 UNK        -0.1993 
     69 N         -46.5951  -28.4707   11.4939 N.am      4 UNK        -0.4486 
     70 C         -45.9869  -28.2753   10.3169 C.2       3 UNK         0.4961 
     71 O         -46.3684  -28.7569    9.2484 O.2       3 UNK        -0.5105 
     72 CA        -44.7462  -27.3694   10.3335 C.3       3 UNK         0.0299 
     73 CB        -43.4609  -28.1983   10.1843 C.3       3 UNK        -0.1972 
     74 N         -44.8435  -26.4216    9.2275 N.am      3 UNK        -0.4305 
     75 C         -45.6348  -25.3423    9.2214 C.2       2 UNK         0.5006 
     76 O         -46.2030  -24.9022   10.2208 O.2       2 UNK        -0.5106 
     77 CA        -45.8947  -24.6870    7.8530 C.3       2 UNK         0.0296 
     78 CB        -44.6011  -24.1751    7.1867 C.3       2 UNK        -0.2002 
     79 N         -46.6713  -25.5691    6.9691 N.am      2 UNK        -0.4032 
     80 C         -46.3174  -26.7601    6.4618 C.2       1 UNK         0.5000 
     81 O         -45.1707  -27.2202    6.5167 O.2       1 UNK        -0.5238 
     82 H82       -45.8254  -31.1822    5.1036 H         1 UNK         0.0889 
     83 H83       -46.3845  -31.2206    3.4299 H         1 UNK         0.0889 
     84 H84       -47.3676  -31.9425    4.7070 H         1 UNK         0.0889 
     85 H85       -46.0462  -29.1185    6.0002 H         1 UNK         0.3028 
     86 H86       -47.6740  -27.1211    4.8652 H         1 UNK         0.0864 
     87 H87       -48.4958  -27.6282    7.7709 H         1 UNK         0.0720 
     88 H88       -49.2658  -28.5763    6.5503 H         1 UNK         0.0720 
     89 H89       -51.0414  -28.0580    5.2020 H         1 UNK         0.0814 
     90 H90       -51.7883  -26.5135    4.9242 H         1 UNK         0.0814 
     91 H91       -53.3719  -25.5372    6.5024 H         1 UNK         0.1469 
     92 H92       -55.0219  -28.1308    9.4811 H         1 UNK         0.1381 
     93 H93       -51.4666  -29.2760    7.3934 H         1 UNK         0.1206 
     94 H94       -53.8267  -30.8391    8.9921 H         1 UNK         0.0813 
     95 H95       -52.1410  -30.5338    9.3062 H         1 UNK         0.0813 
     96 H96       -54.9464  -31.3692   12.1968 H         1 UNK         0.0638 
     97 H97       -55.4079  -31.0710   10.5454 H         1 UNK         0.0638 
     98 H98       -56.3086  -28.8375   11.1623 H         1 UNK         0.0568 
     99 H99       -59.0020  -30.9202   13.3304 H         1 UNK         0.3450 
    100 H100      -57.6450  -30.1332   14.0977 H         1 UNK         0.3450 
    101 H101      -55.0147  -29.2728   13.7150 H         1 UNK         0.2987 
    102 H102      -55.9046  -26.0125   14.8059 H         1 UNK         0.0766 
    103 H103      -56.0894  -27.0925   17.0320 H         1 UNK         0.0798 
    104 H104      -56.3099  -28.6694   16.2768 H         1 UNK         0.0798 
    105 H105      -57.5161  -27.4119   16.0591 H         1 UNK         0.0798 
    106 H106      -53.7529  -26.3144   14.9456 H         1 UNK         0.3198 
    107 H107      -51.6496  -28.6257   16.2171 H         1 UNK         0.0843 
    108 H108      -51.4505  -29.8460   14.1024 H         1 UNK         0.0831 
    109 H109      -50.1851  -28.6289   14.1653 H         1 UNK         0.0831 
    110 H110      -51.6171  -28.3746   13.1678 H         1 UNK         0.0831 
    111 H111      -51.1787  -26.2817   14.5645 H         1 UNK         0.3133 
    112 H112      -51.8884  -23.9219   16.1076 H         1 UNK         0.0566 
    113 H113      -50.3313  -22.9652   17.8151 H         1 UNK         0.0814 
    114 H114      -51.5491  -23.9938   18.5480 H         1 UNK         0.0814 
    115 H115      -49.9095  -24.5934   18.3460 H         1 UNK         0.0814 
    116 H116      -50.1136  -23.6240   14.8517 H         1 UNK         0.3091 
    117 H117      -46.9200  -24.2620   14.8230 H         1 UNK         0.0702 
    118 H118      -46.7704  -25.7733   12.7886 H         1 UNK         0.0785 
    119 H119      -48.2671  -26.5524   13.3222 H         1 UNK         0.0785 
    120 H120      -46.8260  -26.6344   14.3208 H         1 UNK         0.0785 
    121 H121      -49.2009  -24.1110   12.8791 H         1 UNK         0.2998 
    122 H122      -48.7595  -20.6129   12.6553 H         1 UNK         0.0697 
    123 H123      -48.1094  -22.5540   10.3774 H         1 UNK         0.0825 
    124 H124      -47.1089  -21.2297   10.9309 H         1 UNK         0.0825 
    125 H125      -48.6613  -20.8896   10.1899 H         1 UNK         0.0825 
    126 H126      -50.5733  -22.0930   11.1841 H         1 UNK         0.3029 
    127 H127      -53.1664  -21.9415   13.6919 H         1 UNK         0.0897 
    128 H128      -54.1114  -20.8679   11.6914 H         1 UNK         0.0792 
    129 H129      -52.8032  -19.8845   12.3249 H         1 UNK         0.0792 
    130 H130      -52.5454  -20.8645   10.8876 H         1 UNK         0.0792 
    131 H131      -52.8226  -23.3095   11.0985 H         1 UNK         0.3086 
    132 H132      -53.6251  -26.4745   12.5323 H         1 UNK         0.0583 
    133 H133      -55.6649  -25.0791   11.7834 H         1 UNK         0.1020 
    134 H134      -55.2790  -26.4935   10.8948 H         1 UNK         0.1020 
    135 H135      -56.3094  -26.1864    8.6478 H         1 UNK         0.0694 
    136 H136      -55.6397  -25.1509    7.4144 H         1 UNK         0.0694 
    137 H137      -52.6585  -26.0989   10.0011 H         1 UNK         0.2989 
    138 H138      -50.6311  -26.9961    9.4481 H         1 UNK         0.1055 
    139 H139      -50.3498  -24.5295    9.2154 H         1 UNK         0.0806 
    140 H140      -48.8045  -25.3149    8.9345 H         1 UNK         0.0806 
    141 H141      -49.1167  -24.5309   10.4747 H         1 UNK         0.0806 
    142 H142      -48.2039  -26.7275   11.0603 H         1 UNK         0.3061 
    143 H143      -48.0696  -29.0979   12.7841 H         1 UNK         0.0734 
    144 H144      -48.5884  -31.2493   11.7264 H         1 UNK         0.0832 
    145 H145      -47.5708  -30.8785   10.3450 H         1 UNK         0.0832 
    146 H146      -46.8505  -31.1219   11.9367 H         1 UNK         0.0832 
    147 H147      -46.1827  -28.0507   12.3152 H         1 UNK         0.3156 
    148 H148      -44.7007  -26.8179   11.2752 H         1 UNK         0.0589 
    149 H149      -43.4554  -28.7705    9.2553 H         1 UNK         0.0808 
    150 H150      -42.5759  -27.5618   10.1910 H         1 UNK         0.0808 
    151 H151      -43.3572  -28.9083   11.0058 H         1 UNK         0.0808 
    152 H152      -44.5548  -26.7681    8.3168 H         1 UNK         0.3098 
    153 H153      -46.5281  -23.8177    8.0378 H         1 UNK         0.0720 
    154 H154      -44.8190  -23.6579    6.2523 H         1 UNK         0.0791 
    155 H155      -43.8963  -24.9766    6.9655 H         1 UNK         0.0791 
    156 H156      -44.0875  -23.4656    7.8367 H         1 UNK         0.0791 
    157 H157      -47.6441  -25.3107    6.8593 H         1 UNK         0.3028 
@<TRIPOS>BOND
     1    1    2 1    
     2    1   82 1    
     3    1   83 1    
     4    1   84 1    
     5    2    3 2    
     6    2    4 am   BACKBONE|DICT|INTERRES
     7    4    5 1    
     8    4   85 1    
     9    5    6 1    
    10    5   80 1    
    11    5   86 1    
    12    6    7 1    
    13    6   87 1    
    14    6   88 1    
    15    7    8 1    
    16    8    9 1    
    17    8   89 1    
    18    8   90 1    
    19    9   10 ar   
    20    9   14 ar   
    21   10   11 ar   
    22   10   91 1    
    23   11   12 ar   
    24   11   58 1    
    25   12   13 ar   
    26   12   92 1    
    27   13   14 ar   
    28   13   15 1    
    29   14   93 1    
    30   15   16 1    
    31   15   94 1    
    32   15   95 1    
    33   16   17 1    
    34   17   18 1    
    35   17   96 1    
    36   17   97 1    
    37   18   19 1    
    38   18   22 1    
    39   18   98 1    
    40   19   20 am   BACKBONE|DICT|INTERRES
    41   19   21 2    
    42   20   99 1    
    43   20  100 1    
    44   22   23 am   BACKBONE|DICT|INTERRES
    45   22  101 1    
    46   23   24 2    
    47   23   25 1    
    48   25   26 1    
    49   25   27 1    
    50   25  102 1    
    51   26  103 1    
    52   26  104 1    
    53   26  105 1    
    54   27   28 am   BACKBONE|DICT|INTERRES
    55   27  106 1    
    56   28   29 2    
    57   28   30 1    
    58   30   31 1    
    59   30   32 1    
    60   30  107 1    
    61   31  108 1    
    62   31  109 1    
    63   31  110 1    
    64   32   33 am   BACKBONE|DICT|INTERRES
    65   32  111 1    
    66   33   34 2    
    67   33   35 1    
    68   35   36 1    
    69   35   37 1    
    70   35  112 1    
    71   36  113 1    
    72   36  114 1    
    73   36  115 1    
    74   37   38 am   BACKBONE|DICT|INTERRES
    75   37  116 1    
    76   38   39 2    
    77   38   40 1    
    78   40   41 1    
    79   40   42 1    
    80   40  117 1    
    81   41  118 1    
    82   41  119 1    
    83   41  120 1    
    84   42   43 am   BACKBONE|DICT|INTERRES
    85   42  121 1    
    86   43   44 2    
    87   43   45 1    
    88   45   46 1    
    89   45   47 1    
    90   45  122 1    
    91   46  123 1    
    92   46  124 1    
    93   46  125 1    
    94   47   48 am   BACKBONE|DICT|INTERRES
    95   47  126 1    
    96   48   49 2    
    97   48   50 1    
    98   50   51 1    
    99   50   52 1    
   100   50  127 1    
   101   51  128 1    
   102   51  129 1    
   103   51  130 1    
   104   52   53 am   BACKBONE|DICT|INTERRES
   105   52  131 1    
   106   53   54 2    
   107   53   55 1    
   108   55   56 1    
   109   55   59 1    
   110   55  132 1    
   111   56   57 1    
   112   56  133 1    
   113   56  134 1    
   114   57   58 1    
   115   58  135 1    
   116   58  136 1    
   117   59   60 am   BACKBONE|DICT|INTERRES
   118   59  137 1    
   119   60   61 2    
   120   60   62 1    
   121   62   63 1    
   122   62   64 1    
   123   62  138 1    
   124   63  139 1    
   125   63  140 1    
   126   63  141 1    
   127   64   65 am   BACKBONE|DICT|INTERRES
   128   64  142 1    
   129   65   66 2    
   130   65   67 1    
   131   67   68 1    
   132   67   69 1    
   133   67  143 1    
   134   68  144 1    
   135   68  145 1    
   136   68  146 1    
   137   69   70 am   BACKBONE|DICT|INTERRES
   138   69  147 1    
   139   70   71 2    
   140   70   72 1    
   141   72   73 1    
   142   72   74 1    
   143   72  148 1    
   144   73  149 1    
   145   73  150 1    
   146   73  151 1    
   147   74   75 am   BACKBONE|DICT|INTERRES
   148   74  152 1    
   149   75   76 2    
   150   75   77 1    
   151   77   78 1    
   152   77   79 1    
   153   77  153 1    
   154   78  154 1    
   155   78  155 1    
   156   78  156 1    
   157   79   80 am   BACKBONE|DICT|INTERRES
   158   79  157 1    
   159   80   81 2    
@<TRIPOS>SUBSTRUCTURE
     1 UNK         1 GROUP             0       ****    0 ROOT    
