@<TRIPOS>MOLECULE
3R207
157   159    1
SMALL
USER_CHARGES


@<TRIPOS>ATOM
      1 CA        -54.4432  -27.4804    7.8634 C.3       0 UNK        -0.1975 
      2 C         -53.0770  -27.3050    7.2200 C.2       0 UNK         0.4852 
      3 O         -52.9846  -26.8612    6.0745 O.2       0 UNK        -0.5216 
      4 N         -52.0131  -27.6363    7.9636 N.am      1 UNK        -0.4461 
      5 CA        -50.5910  -27.5904    7.5903 C.3       1 UNK         0.0864 
      6 C6        -50.2522  -28.5183    6.3925 C.3       14 UNK        -0.0898 
      7 S7        -48.5144  -29.0741    6.3891 S.3       14 UNK        -0.2598 
      8 C8        -48.6280  -30.6645    7.2768 C.3       14 UNK         0.0286 
      9 C9        -48.9692  -30.4638    8.7468 C.ar      14 UNK        -0.0844 
     10 C10       -47.9760  -30.0730    9.6490 C.ar      14 UNK        -0.0881 
     11 C11       -48.2864  -29.8206   10.9910 C.ar      14 UNK        -0.0643 
     12 C12       -49.6044  -29.9887   11.4282 C.ar      14 UNK        -0.0930 
     13 C13       -50.6021  -30.4021   10.5401 C.ar      14 UNK        -0.0827 
     14 C14       -50.2789  -30.6428    9.2020 C.ar      14 UNK        -0.1249 
     15 C15       -52.0302  -30.5853   11.0254 C.3       14 UNK         0.0141 
     16 S16       -52.9646  -29.0352   10.8856 S.3       14 UNK        -0.2313 
     17 C17       -54.5686  -29.5629   11.5671 C.3       14 UNK        -0.0915 
     18 CA        -55.6292  -28.4341   11.5525 C.3       13 UNK         0.0968 
     19 C         -56.9962  -28.9636   12.0626 C.2       13 UNK         0.5732 
     20 N         -57.2489  -28.9540   13.3651 N.am      13 UNK        -0.7310 
     21 O         -57.8334  -29.3842   11.2677 O.2       13 UNK        -0.5035 
     22 N         -55.1729  -27.2324   12.2663 N.am      13 UNK        -0.4233 
     23 C         -55.7167  -26.0174   12.1208 C.2       13 UNK         0.4989 
     24 O         -56.6282  -25.7623   11.3313 O.2       13 UNK        -0.4996 
     25 CA        -55.1187  -24.9031   12.9980 C.3       12 UNK         0.0216 
     26 CB        -55.8721  -23.5588   12.8972 C.3       12 UNK        -0.1964 
     27 N         -54.9573  -25.3367   14.3907 N.am      12 UNK        -0.4276 
     28 C         -55.9254  -25.6287   15.2722 C.2       12 UNK         0.5020 
     29 O         -57.1290  -25.4985   15.0426 O.2       12 UNK        -0.5489 
     30 CA        -55.4633  -26.1529   16.6477 C.3       11 UNK         0.0294 
     31 CB        -56.6003  -26.8327   17.4408 C.3       11 UNK        -0.2019 
     32 N         -54.2870  -27.0302   16.5847 N.am      11 UNK        -0.4493 
     33 C         -54.1712  -28.1956   15.9264 C.2       11 UNK         0.4932 
     34 O         -55.0639  -28.6721   15.2245 O.2       11 UNK        -0.5029 
     35 CA        -52.8283  -28.9411   16.0592 C.3       10 UNK         0.0280 
     36 CB        -52.4849  -29.7484   14.7951 C.3       10 UNK        -0.1976 
     37 N         -51.7389  -28.0016   16.3173 N.am      10 UNK        -0.4242 
     38 C         -51.0638  -27.8659   17.4663 C.2       10 UNK         0.5072 
     39 O         -51.2446  -28.5759   18.4560 O.2       10 UNK        -0.5224 
     40 CA        -50.0205  -26.7334   17.5384 C.3       9 UNK         0.0343 
     41 CB        -48.5982  -27.3060   17.4259 C.3       9 UNK        -0.2003 
     42 N         -50.2116  -25.7035   16.5113 N.am      9 UNK        -0.4272 
     43 C         -51.2177  -24.8140   16.5081 C.2       9 UNK         0.4988 
     44 O         -52.0604  -24.7373   17.4024 O.2       9 UNK        -0.5108 
     45 CA        -51.3524  -23.8978   15.2760 C.3       8 UNK         0.0248 
     46 CB        -50.5876  -22.5838   15.4983 C.3       8 UNK        -0.2001 
     47 N         -50.9026  -24.5154   14.0245 N.am      8 UNK        -0.4140 
     48 C         -51.3835  -25.6561   13.5103 C.2       8 UNK         0.5028 
     49 O         -52.3155  -26.2856   14.0099 O.2       8 UNK        -0.5428 
     50 CA        -50.6981  -26.2161   12.2552 C.3       7 UNK         0.0264 
     51 CB        -51.4411  -25.7260   11.0048 C.3       7 UNK        -0.1988 
     52 N         -49.2716  -25.8976   12.1179 N.am      7 UNK        -0.4454 
     53 C         -48.3096  -26.0668   13.0408 C.2       7 UNK         0.5027 
     54 O         -48.5272  -26.4786   14.1809 O.2       7 UNK        -0.5083 
     55 CA        -46.8601  -25.7068   12.6441 C.3       6 UNK         0.0844 
     56 C56       -45.9272  -26.9433   12.7153 C.3       14 UNK        -0.0967 
     57 S57       -46.1220  -28.0852   11.3037 S.3       14 UNK        -0.2604 
     58 C58       -47.2085  -29.3849   11.9800 C.3       14 UNK         0.0134 
     59 N         -46.7674  -25.0284   11.3460 N.am      6 UNK        -0.4116 
     60 C         -47.1005  -23.7565   11.0950 C.2       5 UNK         0.5034 
     61 O         -47.4899  -22.9775   11.9656 O.2       5 UNK        -0.5045 
     62 CA        -47.0610  -23.2830    9.6287 C.3       5 UNK         0.0224 
     63 CB        -46.2188  -22.0026    9.4546 C.3       5 UNK        -0.1978 
     64 N         -46.6847  -24.3196    8.6542 N.am      5 UNK        -0.4737 
     65 C         -45.4814  -24.8683    8.4265 C.2       4 UNK         0.5027 
     66 O         -44.4664  -24.5932    9.0647 O.2       4 UNK        -0.5211 
     67 CA        -45.3993  -25.9154    7.3028 C.3       4 UNK         0.0297 
     68 CB        -45.5987  -27.3302    7.8648 C.3       4 UNK        -0.1993 
     69 N         -46.3938  -25.6751    6.2554 N.am      4 UNK        -0.4486 
     70 C         -46.1854  -24.9130    5.1729 C.2       3 UNK         0.4961 
     71 O         -45.1121  -24.3683    4.9122 O.2       3 UNK        -0.5105 
     72 CA        -47.3730  -24.7249    4.2108 C.3       3 UNK         0.0299 
     73 CB        -47.3960  -25.8493    3.1626 C.3       3 UNK        -0.1972 
     74 N         -48.6659  -24.6774    4.8961 N.am      3 UNK        -0.4305 
     75 C         -49.0670  -23.6883    5.7083 C.2       2 UNK         0.5006 
     76 O         -48.4225  -22.6586    5.9066 O.2       2 UNK        -0.5106 
     77 CA        -50.4020  -23.8904    6.4489 C.3       2 UNK         0.0296 
     78 CB        -51.5515  -23.2140    5.6854 C.3       2 UNK        -0.2002 
     79 N         -50.7477  -25.2947    6.6950 N.am      2 UNK        -0.4032 
     80 C         -50.0251  -26.1653    7.4111 C.2       1 UNK         0.5000 
     81 O         -48.9475  -25.8742    7.9331 O.2       1 UNK        -0.5238 
     82 H82       -54.5496  -26.8144    8.7197 H         1 UNK         0.0889 
     83 H83       -54.5787  -28.5076    8.2017 H         1 UNK         0.0889 
     84 H84       -55.2377  -27.2511    7.1535 H         1 UNK         0.0889 
     85 H85       -52.1836  -27.9906    8.8973 H         1 UNK         0.3028 
     86 H86       -50.0817  -27.9805    8.4714 H         1 UNK         0.0864 
     87 H87       -50.8880  -29.4046    6.4132 H         1 UNK         0.0720 
     88 H88       -50.4691  -28.0294    5.4410 H         1 UNK         0.0720 
     89 H89       -47.6720  -31.1833    7.1935 H         1 UNK         0.0814 
     90 H90       -49.3646  -31.3060    6.7906 H         1 UNK         0.0814 
     91 H91       -46.9618  -29.9420    9.2973 H         1 UNK         0.1469 
     92 H92       -49.8574  -29.7991   12.4625 H         1 UNK         0.1381 
     93 H93       -51.0526  -30.9462    8.5099 H         1 UNK         0.1206 
     94 H94       -52.0336  -30.9239   12.0623 H         1 UNK         0.0813 
     95 H95       -52.5285  -31.3633   10.4449 H         1 UNK         0.0813 
     96 H96       -54.4152  -29.9267   12.5836 H         1 UNK         0.0638 
     97 H97       -54.9175  -30.4164   10.9827 H         1 UNK         0.0638 
     98 H98       -55.7791  -28.1510   10.5092 H         1 UNK         0.0568 
     99 H99       -58.1367  -29.2901   13.7001 H         1 UNK         0.3450 
    100 H100      -56.5253  -28.6844   14.0263 H         1 UNK         0.3450 
    101 H101      -54.4402  -27.3673   12.9485 H         1 UNK         0.2987 
    102 H102      -54.1131  -24.7290   12.6150 H         1 UNK         0.0766 
    103 H103      -55.4134  -22.7988   13.5295 H         1 UNK         0.0798 
    104 H104      -56.9185  -23.6523   13.1885 H         1 UNK         0.0798 
    105 H105      -55.8562  -23.1816   11.8740 H         1 UNK         0.0798 
    106 H106      -54.0020  -25.5769   14.6433 H         1 UNK         0.3198 
    107 H107      -55.1517  -25.2717   17.2111 H         1 UNK         0.0843 
    108 H108      -57.0043  -27.6947   16.9086 H         1 UNK         0.0831 
    109 H109      -57.4263  -26.1414   17.6125 H         1 UNK         0.0831 
    110 H110      -56.2563  -27.1718   18.4178 H         1 UNK         0.0831 
    111 H111      -53.4802  -26.7045   17.1012 H         1 UNK         0.3133 
    112 H112      -52.9347  -29.6404   16.8905 H         1 UNK         0.0566 
    113 H113      -52.4274  -29.1061   13.9158 H         1 UNK         0.0814 
    114 H114      -51.5275  -30.2590   14.8985 H         1 UNK         0.0814 
    115 H115      -53.2373  -30.5134   14.6008 H         1 UNK         0.0814 
    116 H116      -51.5655  -27.3386   15.5688 H         1 UNK         0.3091 
    117 H117      -50.1193  -26.2586   18.5169 H         1 UNK         0.0702 
    118 H118      -47.8457  -26.5201   17.4921 H         1 UNK         0.0785 
    119 H119      -48.4494  -27.8356   16.4842 H         1 UNK         0.0785 
    120 H120      -48.3990  -28.0144   18.2311 H         1 UNK         0.0785 
    121 H121      -49.5860  -25.7477   15.7116 H         1 UNK         0.2998 
    122 H122      -52.4120  -23.6608   15.1602 H         1 UNK         0.0697 
    123 H123      -49.5133  -22.7512   15.5868 H         1 UNK         0.0825 
    124 H124      -50.9174  -22.0901   16.4137 H         1 UNK         0.0825 
    125 H125      -50.7525  -21.8842   14.6785 H         1 UNK         0.0825 
    126 H126      -50.1335  -24.0678   13.5467 H         1 UNK         0.3029 
    127 H127      -50.7803  -27.3034   12.3047 H         1 UNK         0.0897 
    128 H128      -52.4995  -25.9869   11.0456 H         1 UNK         0.0792 
    129 H129      -51.0315  -26.1845   10.1093 H         1 UNK         0.0792 
    130 H130      -51.3737  -24.6435   10.8886 H         1 UNK         0.0792 
    131 H131      -48.9786  -25.5724   11.2088 H         1 UNK         0.3086 
    132 H132      -46.5144  -25.0027   13.4039 H         1 UNK         0.0583 
    133 H133      -44.8908  -26.6021   12.7102 H         1 UNK         0.1020 
    134 H134      -46.0426  -27.4801   13.6593 H         1 UNK         0.1020 
    135 H135      -46.6009  -30.2496   12.2489 H         1 UNK         0.0694 
    136 H136      -47.6706  -29.0328   12.9033 H         1 UNK         0.0694 
    137 H137      -46.4506  -25.5998   10.5755 H         1 UNK         0.2989 
    138 H138      -48.0920  -23.0231    9.3825 H         1 UNK         0.1055 
    139 H139      -46.6118  -21.1910   10.0684 H         1 UNK         0.0806 
    140 H140      -46.2309  -21.6594    8.4199 H         1 UNK         0.0806 
    141 H141      -45.1798  -22.1527    9.7485 H         1 UNK         0.0806 
    142 H142      -47.4692  -24.7193    8.1439 H         1 UNK         0.3061 
    143 H143      -44.3964  -25.8640    6.8733 H         1 UNK         0.0734 
    144 H144      -45.5064  -28.0845    7.0835 H         1 UNK         0.0832 
    145 H145      -44.8468  -27.5569    8.6215 H         1 UNK         0.0832 
    146 H146      -46.5798  -27.4477    8.3272 H         1 UNK         0.0832 
    147 H147      -47.3172  -26.0567    6.4162 H         1 UNK         0.3156 
    148 H148      -47.2322  -23.7753    3.6900 H         1 UNK         0.0589 
    149 H149      -47.5549  -26.8270    3.6201 H         1 UNK         0.0808 
    150 H150      -48.1835  -25.6901    2.4257 H         1 UNK         0.0808 
    151 H151      -46.4511  -25.8942    2.6193 H         1 UNK         0.0808 
    152 H152      -49.2760  -25.4725    4.7764 H         1 UNK         0.3098 
    153 H153      -50.3061  -23.4052    7.4225 H         1 UNK         0.0720 
    154 H154      -52.4843  -23.2639    6.2475 H         1 UNK         0.0791 
    155 H155      -51.7200  -23.6808    4.7140 H         1 UNK         0.0791 
    156 H156      -51.3369  -22.1590    5.5087 H         1 UNK         0.0791 
    157 H157      -51.6246  -25.6385    6.3073 H         1 UNK         0.3028 
@<TRIPOS>BOND
     1    1    2 1    
     2    1   82 1    
     3    1   83 1    
     4    1   84 1    
     5    2    3 2    
     6    2    4 am   BACKBONE|DICT|INTERRES
     7    4    5 1    
     8    4   85 1    
     9    5    6 1    
    10    5   80 1    
    11    5   86 1    
    12    6    7 1    
    13    6   87 1    
    14    6   88 1    
    15    7    8 1    
    16    8    9 1    
    17    8   89 1    
    18    8   90 1    
    19    9   10 ar   
    20    9   14 ar   
    21   10   11 ar   
    22   10   91 1    
    23   11   12 ar   
    24   11   58 1    
    25   12   13 ar   
    26   12   92 1    
    27   13   14 ar   
    28   13   15 1    
    29   14   93 1    
    30   15   16 1    
    31   15   94 1    
    32   15   95 1    
    33   16   17 1    
    34   17   18 1    
    35   17   96 1    
    36   17   97 1    
    37   18   19 1    
    38   18   22 1    
    39   18   98 1    
    40   19   20 am   BACKBONE|DICT|INTERRES
    41   19   21 2    
    42   20   99 1    
    43   20  100 1    
    44   22   23 am   BACKBONE|DICT|INTERRES
    45   22  101 1    
    46   23   24 2    
    47   23   25 1    
    48   25   26 1    
    49   25   27 1    
    50   25  102 1    
    51   26  103 1    
    52   26  104 1    
    53   26  105 1    
    54   27   28 am   BACKBONE|DICT|INTERRES
    55   27  106 1    
    56   28   29 2    
    57   28   30 1    
    58   30   31 1    
    59   30   32 1    
    60   30  107 1    
    61   31  108 1    
    62   31  109 1    
    63   31  110 1    
    64   32   33 am   BACKBONE|DICT|INTERRES
    65   32  111 1    
    66   33   34 2    
    67   33   35 1    
    68   35   36 1    
    69   35   37 1    
    70   35  112 1    
    71   36  113 1    
    72   36  114 1    
    73   36  115 1    
    74   37   38 am   BACKBONE|DICT|INTERRES
    75   37  116 1    
    76   38   39 2    
    77   38   40 1    
    78   40   41 1    
    79   40   42 1    
    80   40  117 1    
    81   41  118 1    
    82   41  119 1    
    83   41  120 1    
    84   42   43 am   BACKBONE|DICT|INTERRES
    85   42  121 1    
    86   43   44 2    
    87   43   45 1    
    88   45   46 1    
    89   45   47 1    
    90   45  122 1    
    91   46  123 1    
    92   46  124 1    
    93   46  125 1    
    94   47   48 am   BACKBONE|DICT|INTERRES
    95   47  126 1    
    96   48   49 2    
    97   48   50 1    
    98   50   51 1    
    99   50   52 1    
   100   50  127 1    
   101   51  128 1    
   102   51  129 1    
   103   51  130 1    
   104   52   53 am   BACKBONE|DICT|INTERRES
   105   52  131 1    
   106   53   54 2    
   107   53   55 1    
   108   55   56 1    
   109   55   59 1    
   110   55  132 1    
   111   56   57 1    
   112   56  133 1    
   113   56  134 1    
   114   57   58 1    
   115   58  135 1    
   116   58  136 1    
   117   59   60 am   BACKBONE|DICT|INTERRES
   118   59  137 1    
   119   60   61 2    
   120   60   62 1    
   121   62   63 1    
   122   62   64 1    
   123   62  138 1    
   124   63  139 1    
   125   63  140 1    
   126   63  141 1    
   127   64   65 am   BACKBONE|DICT|INTERRES
   128   64  142 1    
   129   65   66 2    
   130   65   67 1    
   131   67   68 1    
   132   67   69 1    
   133   67  143 1    
   134   68  144 1    
   135   68  145 1    
   136   68  146 1    
   137   69   70 am   BACKBONE|DICT|INTERRES
   138   69  147 1    
   139   70   71 2    
   140   70   72 1    
   141   72   73 1    
   142   72   74 1    
   143   72  148 1    
   144   73  149 1    
   145   73  150 1    
   146   73  151 1    
   147   74   75 am   BACKBONE|DICT|INTERRES
   148   74  152 1    
   149   75   76 2    
   150   75   77 1    
   151   77   78 1    
   152   77   79 1    
   153   77  153 1    
   154   78  154 1    
   155   78  155 1    
   156   78  156 1    
   157   79   80 am   BACKBONE|DICT|INTERRES
   158   79  157 1    
   159   80   81 2    
@<TRIPOS>SUBSTRUCTURE
     1 UNK         1 GROUP             0       ****    0 ROOT    
