@<TRIPOS>MOLECULE
3R207
157   159    1
SMALL
USER_CHARGES


@<TRIPOS>ATOM
      1 CA        -52.8686  -29.4936    9.5649 C.3       0 UNK        -0.1975 
      2 C         -51.6510  -30.2340    9.0388 C.2       0 UNK         0.4852 
      3 O         -51.2072  -31.2014    9.6571 O.2       0 UNK        -0.5216 
      4 N         -51.1025  -29.7787    7.9063 N.am      1 UNK        -0.4461 
      5 CA        -49.9542  -30.3840    7.2178 C.3       1 UNK         0.0864 
      6 C6        -49.9256  -30.0296    5.7077 C.3       14 UNK        -0.0898 
      7 S7        -51.4828  -30.4225    4.8380 S.3       14 UNK        -0.2598 
      8 C8        -52.0323  -28.7762    4.2832 C.3       14 UNK         0.0286 
      9 C9        -52.6320  -27.9583    5.4182 C.ar      14 UNK        -0.0844 
     10 C10       -51.8284  -27.1018    6.1753 C.ar      14 UNK        -0.0881 
     11 C11       -52.3765  -26.3512    7.2179 C.ar      14 UNK        -0.0643 
     12 C12       -53.7502  -26.4158    7.4656 C.ar      14 UNK        -0.0930 
     13 C13       -54.5665  -27.2738    6.7200 C.ar      14 UNK        -0.0827 
     14 C14       -53.9979  -28.0477    5.7029 C.ar      14 UNK        -0.1249 
     15 C15       -56.0635  -27.3579    6.9941 C.3       14 UNK         0.0141 
     16 S16       -56.4410  -28.3120    8.5014 S.3       14 UNK        -0.2313 
     17 C17       -56.2348  -27.0253    9.7791 C.3       14 UNK        -0.0915 
     18 CA        -56.9559  -27.3220   11.1264 C.3       13 UNK         0.0968 
     19 C         -58.5082  -27.2409   11.0513 C.2       13 UNK         0.5732 
     20 N         -59.2532  -28.0430   11.8051 N.am      13 UNK        -0.7310 
     21 O         -59.0557  -26.4205   10.3183 O.2       13 UNK        -0.5035 
     22 N         -56.4570  -28.5308   11.8018 N.am      13 UNK        -0.4233 
     23 C         -55.2294  -28.6604   12.3141 C.2       13 UNK         0.4989 
     24 O         -54.3644  -27.7856   12.2236 O.2       13 UNK        -0.4996 
     25 CA        -54.9216  -29.9882   13.0432 C.3       12 UNK         0.0216 
     26 CB        -55.1579  -31.2171   12.1444 C.3       12 UNK        -0.1964 
     27 N         -53.5439  -30.0315   13.5431 N.am      12 UNK        -0.4276 
     28 C         -53.0782  -29.3001   14.5636 C.2       12 UNK         0.5020 
     29 O         -53.8069  -28.6459   15.3161 O.2       12 UNK        -0.5489 
     30 CA        -51.5479  -29.2988   14.7570 C.3       11 UNK         0.0294 
     31 CB        -50.7828  -29.1908   13.4206 C.3       11 UNK        -0.2019 
     32 N         -51.1406  -28.1806   15.6047 N.am      11 UNK        -0.4493 
     33 C         -51.0687  -28.2060   16.9409 C.2       11 UNK         0.4932 
     34 O         -51.2700  -29.2118   17.6253 O.2       11 UNK        -0.5029 
     35 CA        -50.6860  -26.8708   17.6068 C.3       10 UNK         0.0280 
     36 CB        -50.4357  -26.9885   19.1256 C.3       10 UNK        -0.1976 
     37 N         -49.5541  -26.2323   16.9266 N.am      10 UNK        -0.4242 
     38 C         -48.3039  -26.7050   16.7955 C.2       10 UNK         0.5072 
     39 O         -47.8972  -27.7442   17.3169 O.2       10 UNK        -0.5224 
     40 CA        -47.3364  -25.8936   15.9130 C.3       9 UNK         0.0343 
     41 CB        -47.1455  -26.5925   14.5554 C.3       9 UNK        -0.2003 
     42 N         -47.7726  -24.5171   15.6720 N.am      9 UNK        -0.4272 
     43 C         -47.8170  -23.5373   16.5850 C.2       9 UNK         0.4988 
     44 O         -47.4367  -23.6618   17.7493 O.2       9 UNK        -0.5108 
     45 CA        -48.4155  -22.2008   16.1200 C.3       8 UNK         0.0248 
     46 CB        -47.3467  -21.3375   15.4293 C.3       8 UNK        -0.2001 
     47 N         -49.5501  -22.3986   15.2128 N.am      8 UNK        -0.4140 
     48 C         -50.7888  -22.7278   15.6052 C.2       8 UNK         0.5028 
     49 O         -51.1170  -22.8722   16.7829 O.2       8 UNK        -0.5428 
     50 CA        -51.8409  -22.9428   14.5017 C.3       7 UNK         0.0264 
     51 CB        -52.4988  -21.6078   14.1169 C.3       7 UNK        -0.1988 
     52 N         -51.3023  -23.5853   13.2994 N.am      7 UNK        -0.4454 
     53 C         -50.9194  -24.8688   13.2406 C.2       7 UNK         0.5027 
     54 O         -50.9841  -25.6470   14.1949 O.2       7 UNK        -0.5083 
     55 CA        -50.3207  -25.3621   11.9069 C.3       6 UNK         0.0844 
     56 C56       -51.4275  -25.8479   10.9370 C.3       14 UNK        -0.0967 
     57 S57       -50.7133  -26.5222    9.3948 S.3       14 UNK        -0.2604 
     58 C58       -51.4701  -25.4997    8.0900 C.3       14 UNK         0.0134 
     59 N         -49.3952  -24.4280   11.2503 N.am      6 UNK        -0.4116 
     60 C         -48.3565  -23.7869   11.8009 C.2       5 UNK         0.5034 
     61 O         -48.1363  -23.7604   13.0103 O.2       5 UNK        -0.5045 
     62 CA        -47.3872  -23.0595   10.8550 C.3       5 UNK         0.0224 
     63 CB        -45.9253  -23.3403   11.2495 C.3       5 UNK        -0.1978 
     64 N         -47.5691  -23.4491    9.4527 N.am      5 UNK        -0.4737 
     65 C         -48.1098  -22.6738    8.5010 C.2       4 UNK         0.5027 
     66 O         -48.6176  -21.5770    8.7350 O.2       4 UNK        -0.5211 
     67 CA        -48.0585  -23.1853    7.0473 C.3       4 UNK         0.0297 
     68 CB        -47.7119  -22.0577    6.0576 C.3       4 UNK        -0.1993 
     69 N         -47.0733  -24.2581    6.9058 N.am      4 UNK        -0.4486 
     70 C         -47.3256  -25.4991    6.4777 C.2       3 UNK         0.4961 
     71 O         -48.4102  -25.8690    6.0274 O.2       3 UNK        -0.5105 
     72 CA        -46.1830  -26.5262    6.6056 C.3       3 UNK         0.0299 
     73 CB        -44.8060  -25.9154    6.9574 C.3       3 UNK        -0.1972 
     74 N         -46.5391  -27.5771    7.5640 N.am      3 UNK        -0.4305 
     75 C         -46.9007  -27.4146    8.8463 C.2       2 UNK         0.5006 
     76 O         -46.9085  -26.3272    9.4293 O.2       2 UNK        -0.5106 
     77 CA        -47.3755  -28.6875    9.5689 C.3       2 UNK         0.0296 
     78 CB        -47.6669  -28.4574   11.0621 C.3       2 UNK        -0.2002 
     79 N         -48.5816  -29.2049    8.9186 N.am      2 UNK        -0.4032 
     80 C         -48.5942  -30.0398    7.8699 C.2       1 UNK         0.5000 
     81 O         -47.5622  -30.5054    7.3810 O.2       1 UNK        -0.5238 
     82 H82       -52.7715  -29.3301   10.6367 H         1 UNK         0.0889 
     83 H83       -53.7728  -30.0702    9.3757 H         1 UNK         0.0889 
     84 H84       -52.9896  -28.5214    9.0923 H         1 UNK         0.0889 
     85 H85       -51.5282  -28.9918    7.4324 H         1 UNK         0.3028 
     86 H86       -50.0589  -31.4685    7.2944 H         1 UNK         0.0864 
     87 H87       -49.6714  -28.9792    5.5616 H         1 UNK         0.0720 
     88 H88       -49.1356  -30.5922    5.2063 H         1 UNK         0.0720 
     89 H89       -52.7755  -28.9057    3.4949 H         1 UNK         0.0814 
     90 H90       -51.1997  -28.2419    3.8226 H         1 UNK         0.0814 
     91 H91       -50.7697  -27.0261    5.9687 H         1 UNK         0.1469 
     92 H92       -54.1765  -25.8126    8.2535 H         1 UNK         0.1381 
     93 H93       -54.6212  -28.7135    5.1215 H         1 UNK         0.1206 
     94 H94       -56.5704  -27.8357    6.1544 H         1 UNK         0.0813 
     95 H95       -56.4873  -26.3552    7.0630 H         1 UNK         0.0813 
     96 H96       -56.5727  -26.0665    9.3829 H         1 UNK         0.0638 
     97 H97       -55.1669  -26.9034    9.9547 H         1 UNK         0.0638 
     98 H98       -56.7049  -26.4920   11.7894 H         1 UNK         0.0568 
     99 H99       -60.2564  -27.9661   11.7412 H         1 UNK         0.3450 
    100 H100      -58.8475  -28.6684   12.4806 H         1 UNK         0.3450 
    101 H101      -57.1105  -29.2969   11.8617 H         1 UNK         0.2987 
    102 H102      -55.5981  -30.0525   13.8981 H         1 UNK         0.0766 
    103 H103      -54.9807  -32.1426   12.6929 H         1 UNK         0.0798 
    104 H104      -54.5015  -31.2199   11.2753 H         1 UNK         0.0798 
    105 H105      -56.1840  -31.2615   11.7786 H         1 UNK         0.0798 
    106 H106      -52.8771  -30.5298   12.9730 H         1 UNK         0.3198 
    107 H107      -51.2717  -30.2391   15.2390 H         1 UNK         0.0843 
    108 H108      -50.9028  -30.0867   12.8106 H         1 UNK         0.0831 
    109 H109      -49.7125  -29.0665   13.5873 H         1 UNK         0.0831 
    110 H110      -51.1259  -28.3414   12.8298 H         1 UNK         0.0831 
    111 H111      -51.0306  -27.2833   15.1367 H         1 UNK         0.3133 
    112 H112      -51.5380  -26.2039   17.4655 H         1 UNK         0.0566 
    113 H113      -50.1771  -26.0229   19.5601 H         1 UNK         0.0814 
    114 H114      -51.3283  -27.3471   19.6395 H         1 UNK         0.0814 
    115 H115      -49.6294  -27.6862   19.3534 H         1 UNK         0.0814 
    116 H116      -49.7785  -25.3891   16.4161 H         1 UNK         0.3091 
    117 H117      -46.3726  -25.8588   16.4248 H         1 UNK         0.0702 
    118 H118      -46.4293  -26.0592   13.9297 H         1 UNK         0.0785 
    119 H119      -48.0840  -26.6607   14.0041 H         1 UNK         0.0785 
    120 H120      -46.7698  -27.6082   14.6860 H         1 UNK         0.0785 
    121 H121      -48.0372  -24.2890   14.7147 H         1 UNK         0.2998 
    122 H122      -48.7646  -21.6635   17.0046 H         1 UNK         0.0697 
    123 H123      -46.9523  -21.8167   14.5324 H         1 UNK         0.0825 
    124 H124      -46.5038  -21.1545   16.0972 H         1 UNK         0.0825 
    125 H125      -47.7476  -20.3656   15.1414 H         1 UNK         0.0825 
    126 H126      -49.3429  -22.3861   14.2229 H         1 UNK         0.3029 
    127 H127      -52.6151  -23.5949   14.9131 H         1 UNK         0.0897 
    128 H128      -53.3081  -21.7558   13.4017 H         1 UNK         0.0792 
    129 H129      -52.9287  -21.1190   14.9925 H         1 UNK         0.0792 
    130 H130      -51.7821  -20.9138   13.6759 H         1 UNK         0.0792 
    131 H131      -51.2029  -23.0119   12.4741 H         1 UNK         0.3086 
    132 H132      -49.7170  -26.2283   12.1733 H         1 UNK         0.0583 
    133 H133      -52.0271  -26.6339   11.3999 H         1 UNK         0.1020 
    134 H134      -52.1248  -25.0396   10.7123 H         1 UNK         0.1020 
    135 H135      -52.0184  -24.6549    8.5077 H         1 UNK         0.0694 
    136 H136      -50.6758  -25.0722    7.4790 H         1 UNK         0.0694 
    137 H137      -49.4634  -24.4000   10.2438 H         1 UNK         0.2989 
    138 H138      -47.5709  -21.9905   10.9820 H         1 UNK         0.1055 
    139 H139      -45.7186  -23.0089   12.2681 H         1 UNK         0.0806 
    140 H140      -45.2302  -22.8150   10.5946 H         1 UNK         0.0806 
    141 H141      -45.6940  -24.4054   11.1993 H         1 UNK         0.0806 
    142 H142      -47.2539  -24.3880    9.2160 H         1 UNK         0.3061 
    143 H143      -49.0583  -23.5498    6.8082 H         1 UNK         0.0734 
    144 H144      -48.4574  -21.2620    6.0897 H         1 UNK         0.0832 
    145 H145      -46.7437  -21.6084    6.2811 H         1 UNK         0.0832 
    146 H146      -47.6818  -22.4272    5.0325 H         1 UNK         0.0832 
    147 H147      -46.1511  -24.0616    7.2698 H         1 UNK         0.3156 
    148 H148      -46.0931  -27.0083    5.6311 H         1 UNK         0.0589 
    149 H149      -44.7937  -25.4486    7.9431 H         1 UNK         0.0808 
    150 H150      -44.0313  -26.6824    6.9538 H         1 UNK         0.0808 
    151 H151      -44.5078  -25.1636    6.2252 H         1 UNK         0.0808 
    152 H152      -46.6149  -28.5132    7.1829 H         1 UNK         0.3098 
    153 H153      -46.5713  -29.4232    9.5007 H         1 UNK         0.0720 
    154 H154      -46.7959  -28.0480   11.5755 H         1 UNK         0.0791 
    155 H155      -47.9328  -29.3888   11.5621 H         1 UNK         0.0791 
    156 H156      -48.4874  -27.7581   11.2009 H         1 UNK         0.0791 
    157 H157      -49.4614  -28.8088    9.2198 H         1 UNK         0.3028 
@<TRIPOS>BOND
     1    1    2 1    
     2    1   82 1    
     3    1   83 1    
     4    1   84 1    
     5    2    3 2    
     6    2    4 am   BACKBONE|DICT|INTERRES
     7    4    5 1    
     8    4   85 1    
     9    5    6 1    
    10    5   80 1    
    11    5   86 1    
    12    6    7 1    
    13    6   87 1    
    14    6   88 1    
    15    7    8 1    
    16    8    9 1    
    17    8   89 1    
    18    8   90 1    
    19    9   10 ar   
    20    9   14 ar   
    21   10   11 ar   
    22   10   91 1    
    23   11   12 ar   
    24   11   58 1    
    25   12   13 ar   
    26   12   92 1    
    27   13   14 ar   
    28   13   15 1    
    29   14   93 1    
    30   15   16 1    
    31   15   94 1    
    32   15   95 1    
    33   16   17 1    
    34   17   18 1    
    35   17   96 1    
    36   17   97 1    
    37   18   19 1    
    38   18   22 1    
    39   18   98 1    
    40   19   20 am   BACKBONE|DICT|INTERRES
    41   19   21 2    
    42   20   99 1    
    43   20  100 1    
    44   22   23 am   BACKBONE|DICT|INTERRES
    45   22  101 1    
    46   23   24 2    
    47   23   25 1    
    48   25   26 1    
    49   25   27 1    
    50   25  102 1    
    51   26  103 1    
    52   26  104 1    
    53   26  105 1    
    54   27   28 am   BACKBONE|DICT|INTERRES
    55   27  106 1    
    56   28   29 2    
    57   28   30 1    
    58   30   31 1    
    59   30   32 1    
    60   30  107 1    
    61   31  108 1    
    62   31  109 1    
    63   31  110 1    
    64   32   33 am   BACKBONE|DICT|INTERRES
    65   32  111 1    
    66   33   34 2    
    67   33   35 1    
    68   35   36 1    
    69   35   37 1    
    70   35  112 1    
    71   36  113 1    
    72   36  114 1    
    73   36  115 1    
    74   37   38 am   BACKBONE|DICT|INTERRES
    75   37  116 1    
    76   38   39 2    
    77   38   40 1    
    78   40   41 1    
    79   40   42 1    
    80   40  117 1    
    81   41  118 1    
    82   41  119 1    
    83   41  120 1    
    84   42   43 am   BACKBONE|DICT|INTERRES
    85   42  121 1    
    86   43   44 2    
    87   43   45 1    
    88   45   46 1    
    89   45   47 1    
    90   45  122 1    
    91   46  123 1    
    92   46  124 1    
    93   46  125 1    
    94   47   48 am   BACKBONE|DICT|INTERRES
    95   47  126 1    
    96   48   49 2    
    97   48   50 1    
    98   50   51 1    
    99   50   52 1    
   100   50  127 1    
   101   51  128 1    
   102   51  129 1    
   103   51  130 1    
   104   52   53 am   BACKBONE|DICT|INTERRES
   105   52  131 1    
   106   53   54 2    
   107   53   55 1    
   108   55   56 1    
   109   55   59 1    
   110   55  132 1    
   111   56   57 1    
   112   56  133 1    
   113   56  134 1    
   114   57   58 1    
   115   58  135 1    
   116   58  136 1    
   117   59   60 am   BACKBONE|DICT|INTERRES
   118   59  137 1    
   119   60   61 2    
   120   60   62 1    
   121   62   63 1    
   122   62   64 1    
   123   62  138 1    
   124   63  139 1    
   125   63  140 1    
   126   63  141 1    
   127   64   65 am   BACKBONE|DICT|INTERRES
   128   64  142 1    
   129   65   66 2    
   130   65   67 1    
   131   67   68 1    
   132   67   69 1    
   133   67  143 1    
   134   68  144 1    
   135   68  145 1    
   136   68  146 1    
   137   69   70 am   BACKBONE|DICT|INTERRES
   138   69  147 1    
   139   70   71 2    
   140   70   72 1    
   141   72   73 1    
   142   72   74 1    
   143   72  148 1    
   144   73  149 1    
   145   73  150 1    
   146   73  151 1    
   147   74   75 am   BACKBONE|DICT|INTERRES
   148   74  152 1    
   149   75   76 2    
   150   75   77 1    
   151   77   78 1    
   152   77   79 1    
   153   77  153 1    
   154   78  154 1    
   155   78  155 1    
   156   78  156 1    
   157   79   80 am   BACKBONE|DICT|INTERRES
   158   79  157 1    
   159   80   81 2    
@<TRIPOS>SUBSTRUCTURE
     1 UNK         1 GROUP             0       ****    0 ROOT    
