@<TRIPOS>MOLECULE
3R207
157   159    1
SMALL
USER_CHARGES


@<TRIPOS>ATOM
      1 CA        -51.7065  -29.8993    5.6541 C.3       0 UNK        -0.1975 
      2 C         -50.9845  -29.1351    4.5546 C.2       0 UNK         0.4852 
      3 O         -50.7349  -29.6884    3.4833 O.2       0 UNK        -0.5216 
      4 N         -50.6535  -27.8640    4.8146 N.am      1 UNK        -0.4461 
      5 CA        -49.9918  -26.9408    3.8808 C.3       1 UNK         0.0864 
      6 C6        -49.9744  -25.4901    4.4288 C.3       14 UNK        -0.0898 
      7 S7        -51.6129  -24.8709    4.9394 S.3       14 UNK        -0.2598 
      8 C8        -51.3645  -24.5860    6.7223 C.3       14 UNK         0.0286 
      9 C9        -51.5632  -25.8528    7.5441 C.ar      14 UNK        -0.0844 
     10 C10       -50.4848  -26.6855    7.8606 C.ar      14 UNK        -0.0881 
     11 C11       -50.6758  -27.8278    8.6464 C.ar      14 UNK        -0.0643 
     12 C12       -51.9540  -28.1291    9.1252 C.ar      14 UNK        -0.0930 
     13 C13       -53.0384  -27.3015    8.8194 C.ar      14 UNK        -0.0827 
     14 C14       -52.8362  -26.1696    8.0255 C.ar      14 UNK        -0.1249 
     15 C15       -54.4357  -27.6290    9.3246 C.3       14 UNK         0.0141 
     16 S16       -54.7811  -26.8218   10.9193 S.3       14 UNK        -0.2313 
     17 C17       -54.1416  -28.0593   12.0972 C.3       14 UNK        -0.0915 
     18 CA        -55.2958  -28.8827   12.7276 C.3       13 UNK         0.0968 
     19 C         -54.7873  -30.1909   13.4026 C.2       13 UNK         0.5732 
     20 N         -55.0917  -30.4708   14.6650 N.am      13 UNK        -0.7310 
     21 O         -54.1153  -30.9893   12.7543 O.2       13 UNK        -0.5035 
     22 N         -56.1322  -28.0428   13.5965 N.am      13 UNK        -0.4233 
     23 C         -57.4312  -28.2517   13.8449 C.2       13 UNK         0.4989 
     24 O         -58.1017  -29.1205   13.2837 O.2       13 UNK        -0.4996 
     25 CA        -58.0865  -27.3423   14.9091 C.3       12 UNK         0.0216 
     26 CB        -59.3585  -27.9678   15.5215 C.3       12 UNK        -0.1964 
     27 N         -57.1624  -26.9157   15.9721 N.am      12 UNK        -0.4276 
     28 C         -56.4395  -27.7125   16.7726 C.2       12 UNK         0.5020 
     29 O         -56.4742  -28.9451   16.7408 O.2       12 UNK        -0.5489 
     30 CA        -55.4821  -27.0162   17.7516 C.3       11 UNK         0.0294 
     31 CB        -55.9558  -27.2009   19.2024 C.3       11 UNK        -0.2019 
     32 N         -54.1222  -27.5409   17.6100 N.am      11 UNK        -0.4493 
     33 C         -53.3598  -27.3870   16.5197 C.2       11 UNK         0.4932 
     34 O         -53.7057  -26.7455   15.5254 O.2       11 UNK        -0.5029 
     35 CA        -51.9859  -28.0662   16.5482 C.3       10 UNK         0.0280 
     36 CB        -51.8644  -29.1406   15.4554 C.3       10 UNK        -0.1976 
     37 N         -50.9524  -27.0521   16.3512 N.am      10 UNK        -0.4242 
     38 C         -50.2013  -26.5511   17.3419 C.2       10 UNK         0.5072 
     39 O         -50.2887  -26.9135   18.5166 O.2       10 UNK        -0.5224 
     40 CA        -49.1641  -25.4739   16.9840 C.3       9 UNK         0.0343 
     41 CB        -47.8346  -26.1190   16.5612 C.3       9 UNK        -0.2003 
     42 N         -49.6034  -24.5331   15.9530 N.am      9 UNK        -0.4272 
     43 C         -50.5574  -23.6067   16.1298 C.2       9 UNK         0.4988 
     44 O         -51.2262  -23.4960   17.1577 O.2       9 UNK        -0.5108 
     45 CA        -50.7847  -22.6159   14.9798 C.3       8 UNK         0.0248 
     46 CB        -49.7048  -21.5207   14.9889 C.3       8 UNK        -0.2001 
     47 N         -50.7727  -23.2980   13.6879 N.am      8 UNK        -0.4140 
     48 C         -51.8683  -23.7042   13.0321 C.2       8 UNK         0.5028 
     49 O         -53.0189  -23.4712   13.4045 O.2       8 UNK        -0.5428 
     50 CA        -51.6468  -24.4911   11.7278 C.3       7 UNK         0.0264 
     51 CB        -51.6994  -23.5328   10.5287 C.3       7 UNK        -0.1988 
     52 N         -50.3873  -25.2431   11.7016 N.am      7 UNK        -0.4454 
     53 C         -50.1142  -26.2726   12.5199 C.2       7 UNK         0.5027 
     54 O         -50.9044  -26.6964   13.3621 O.2       7 UNK        -0.5083 
     55 CA        -48.7066  -26.9021   12.4669 C.3       6 UNK         0.0844 
     56 C56       -48.6779  -28.2034   11.6182 C.3       14 UNK        -0.0967 
     57 S57       -48.1827  -27.9539    9.8756 S.3       14 UNK        -0.2604 
     58 C58       -49.5105  -28.7632    8.9326 C.3       14 UNK         0.0134 
     59 N         -47.6468  -25.9655   12.0870 N.am      6 UNK        -0.4116 
     60 C         -47.3652  -24.7843   12.6477 C.2       5 UNK         0.5034 
     61 O         -47.9206  -24.3515   13.6582 O.2       5 UNK        -0.5045 
     62 CA        -46.3381  -23.9103   11.9057 C.3       5 UNK         0.0224 
     63 CB        -44.9314  -24.1340   12.4812 C.3       5 UNK        -0.1978 
     64 N         -46.3072  -24.1228   10.4496 N.am      5 UNK        -0.4737 
     65 C         -47.3472  -23.9822    9.6159 C.2       4 UNK         0.5027 
     66 O         -48.4801  -23.6872    9.9934 O.2       4 UNK        -0.5211 
     67 CA        -47.1134  -24.2410    8.1187 C.3       4 UNK         0.0297 
     68 CB        -46.6547  -22.9591    7.3993 C.3       4 UNK        -0.1993 
     69 N         -46.2382  -25.3794    7.8078 N.am      4 UNK        -0.4486 
     70 C         -44.9217  -25.5357    7.9936 C.2       3 UNK         0.4961 
     71 O         -44.2132  -24.7123    8.5733 O.2       3 UNK        -0.5105 
     72 CA        -44.2711  -26.8232    7.4394 C.3       3 UNK         0.0299 
     73 CB        -44.2243  -27.9168    8.5250 C.3       3 UNK        -0.1972 
     74 N         -44.8449  -27.3376    6.1788 N.am      3 UNK        -0.4305 
     75 C         -46.0764  -27.8229    5.9698 C.2       2 UNK         0.5006 
     76 O         -46.9333  -27.9094    6.8515 O.2       2 UNK        -0.5106 
     77 CA        -46.4469  -28.2432    4.5426 C.3       2 UNK         0.0296 
     78 CB        -46.0905  -29.7172    4.2926 C.3       2 UNK        -0.2002 
     79 N         -47.8912  -28.0677    4.4435 N.am      2 UNK        -0.4032 
     80 C         -48.5436  -27.3482    3.5264 C.2       1 UNK         0.5000 
     81 O         -48.0384  -26.9553    2.4730 O.2       1 UNK        -0.5238 
     82 H82       -52.5132  -30.4977    5.2316 H         1 UNK         0.0889 
     83 H83       -52.1421  -29.2264    6.3923 H         1 UNK         0.0889 
     84 H84       -51.0147  -30.5687    6.1646 H         1 UNK         0.0889 
     85 H85       -50.9305  -27.4546    5.6975 H         1 UNK         0.3028 
     86 H86       -50.5659  -26.9508    2.9518 H         1 UNK         0.0864 
     87 H87       -49.2799  -25.4052    5.2667 H         1 UNK         0.0720 
     88 H88       -49.5976  -24.8072    3.6645 H         1 UNK         0.0720 
     89 H89       -52.0790  -23.8286    7.0487 H         1 UNK         0.0814 
     90 H90       -50.3798  -24.1550    6.9072 H         1 UNK         0.0814 
     91 H91       -49.4929  -26.4528    7.4997 H         1 UNK         0.1469 
     92 H92       -52.1066  -29.0163    9.7232 H         1 UNK         0.1381 
     93 H93       -53.6729  -25.5259    7.7901 H         1 UNK         0.1206 
     94 H94       -54.5731  -28.7080    9.4105 H         1 UNK         0.0813 
     95 H95       -55.1756  -27.2906    8.5977 H         1 UNK         0.0813 
     96 H96       -53.5718  -27.5401   12.8694 H         1 UNK         0.0638 
     97 H97       -53.4278  -28.7032   11.5841 H         1 UNK         0.0638 
     98 H98       -55.9210  -29.2328   11.9040 H         1 UNK         0.0568 
     99 H99       -54.7635  -31.3361   15.0611 H         1 UNK         0.3450 
    100 H100      -55.6503  -29.8425   15.2350 H         1 UNK         0.3450 
    101 H101      -55.6402  -27.3305   14.1185 H         1 UNK         0.2987 
    102 H102      -58.3864  -26.4356   14.3816 H         1 UNK         0.0766 
    103 H103      -60.1080  -28.1665   14.7544 H         1 UNK         0.0798 
    104 H104      -59.8162  -27.3015   16.2527 H         1 UNK         0.0798 
    105 H105      -59.1434  -28.9142   16.0189 H         1 UNK         0.0798 
    106 H106      -57.0402  -25.9157   16.0631 H         1 UNK         0.3198 
    107 H107      -55.4545  -25.9465   17.5318 H         1 UNK         0.0843 
    108 H108      -55.9865  -28.2537   19.4867 H         1 UNK         0.0831 
    109 H109      -56.9608  -26.7987   19.3377 H         1 UNK         0.0831 
    110 H110      -55.3028  -26.6813   19.9040 H         1 UNK         0.0831 
    111 H111      -53.7750  -28.1070   18.3707 H         1 UNK         0.3133 
    112 H112      -51.8521  -28.5674   17.5092 H         1 UNK         0.0566 
    113 H113      -50.8557  -29.5510   15.4115 H         1 UNK         0.0814 
    114 H114      -52.1091  -28.7511   14.4673 H         1 UNK         0.0814 
    115 H115      -52.5412  -29.9707   15.6560 H         1 UNK         0.0814 
    116 H116      -50.8746  -26.6787   15.4097 H         1 UNK         0.3091 
    117 H117      -48.9746  -24.8951   17.8907 H         1 UNK         0.0702 
    118 H118      -47.4502  -26.7694   17.3481 H         1 UNK         0.0785 
    119 H119      -47.0721  -25.3655   16.3624 H         1 UNK         0.0785 
    120 H120      -47.9467  -26.7266   15.6645 H         1 UNK         0.0785 
    121 H121      -49.0604  -24.5187   15.0930 H         1 UNK         0.2998 
    122 H122      -51.7511  -22.1328   15.1392 H         1 UNK         0.0697 
    123 H123      -48.7058  -21.9302   14.8336 H         1 UNK         0.0825 
    124 H124      -49.6956  -20.9910   15.9424 H         1 UNK         0.0825 
    125 H125      -49.8869  -20.7806   14.2096 H         1 UNK         0.0825 
    126 H126      -49.8656  -23.5567   13.3193 H         1 UNK         0.3029 
    127 H127      -52.4603  -25.2115   11.6313 H         1 UNK         0.0897 
    128 H128      -50.9585  -22.7370   10.6143 H         1 UNK         0.0792 
    129 H129      -52.6800  -23.0619   10.4495 H         1 UNK         0.0792 
    130 H130      -51.5137  -24.0576    9.5951 H         1 UNK         0.0792 
    131 H131      -49.6774  -24.9151   11.0528 H         1 UNK         0.3086 
    132 H132      -48.4863  -27.1953   13.4938 H         1 UNK         0.0583 
    133 H133      -47.9472  -28.8878   12.0518 H         1 UNK         0.1020 
    134 H134      -49.6289  -28.7380   11.6708 H         1 UNK         0.1020 
    135 H135      -49.0996  -29.1013    7.9806 H         1 UNK         0.0694 
    136 H136      -49.8380  -29.6636    9.4542 H         1 UNK         0.0694 
    137 H137      -47.1571  -26.2067   11.2369 H         1 UNK         0.2989 
    138 H138      -46.6219  -22.8701   12.0783 H         1 UNK         0.1055 
    139 H139      -44.5802  -25.1516   12.3053 H         1 UNK         0.0806 
    140 H140      -44.9183  -23.9649   13.5591 H         1 UNK         0.0806 
    141 H141      -44.2083  -23.4487   12.0385 H         1 UNK         0.0806 
    142 H142      -45.4098  -24.3459   10.0261 H         1 UNK         0.3061 
    143 H143      -48.0850  -24.5093    7.7037 H         1 UNK         0.0734 
    144 H144      -45.6878  -22.6099    7.7626 H         1 UNK         0.0832 
    145 H145      -46.5733  -23.1156    6.3237 H         1 UNK         0.0832 
    146 H146      -47.3695  -22.1500    7.5558 H         1 UNK         0.0832 
    147 H147      -46.7099  -26.1997    7.4300 H         1 UNK         0.3156 
    148 H148      -43.2391  -26.5617    7.1999 H         1 UNK         0.0589 
    149 H149      -43.6962  -28.8027    8.1730 H         1 UNK         0.0808 
    150 H150      -43.7022  -27.5601    9.4139 H         1 UNK         0.0808 
    151 H151      -45.2215  -28.2249    8.8406 H         1 UNK         0.0808 
    152 H152      -44.2277  -27.2776    5.3800 H         1 UNK         0.3098 
    153 H153      -45.9250  -27.6026    3.8284 H         1 UNK         0.0720 
    154 H154      -46.5682  -30.3771    5.0183 H         1 UNK         0.0791 
    155 H155      -45.0139  -29.8774    4.3623 H         1 UNK         0.0791 
    156 H156      -46.4032  -30.0342    3.2974 H         1 UNK         0.0791 
    157 H157      -48.3802  -28.2892    5.3015 H         1 UNK         0.3028 
@<TRIPOS>BOND
     1    1    2 1    
     2    1   82 1    
     3    1   83 1    
     4    1   84 1    
     5    2    3 2    
     6    2    4 am   BACKBONE|DICT|INTERRES
     7    4    5 1    
     8    4   85 1    
     9    5    6 1    
    10    5   80 1    
    11    5   86 1    
    12    6    7 1    
    13    6   87 1    
    14    6   88 1    
    15    7    8 1    
    16    8    9 1    
    17    8   89 1    
    18    8   90 1    
    19    9   10 ar   
    20    9   14 ar   
    21   10   11 ar   
    22   10   91 1    
    23   11   12 ar   
    24   11   58 1    
    25   12   13 ar   
    26   12   92 1    
    27   13   14 ar   
    28   13   15 1    
    29   14   93 1    
    30   15   16 1    
    31   15   94 1    
    32   15   95 1    
    33   16   17 1    
    34   17   18 1    
    35   17   96 1    
    36   17   97 1    
    37   18   19 1    
    38   18   22 1    
    39   18   98 1    
    40   19   20 am   BACKBONE|DICT|INTERRES
    41   19   21 2    
    42   20   99 1    
    43   20  100 1    
    44   22   23 am   BACKBONE|DICT|INTERRES
    45   22  101 1    
    46   23   24 2    
    47   23   25 1    
    48   25   26 1    
    49   25   27 1    
    50   25  102 1    
    51   26  103 1    
    52   26  104 1    
    53   26  105 1    
    54   27   28 am   BACKBONE|DICT|INTERRES
    55   27  106 1    
    56   28   29 2    
    57   28   30 1    
    58   30   31 1    
    59   30   32 1    
    60   30  107 1    
    61   31  108 1    
    62   31  109 1    
    63   31  110 1    
    64   32   33 am   BACKBONE|DICT|INTERRES
    65   32  111 1    
    66   33   34 2    
    67   33   35 1    
    68   35   36 1    
    69   35   37 1    
    70   35  112 1    
    71   36  113 1    
    72   36  114 1    
    73   36  115 1    
    74   37   38 am   BACKBONE|DICT|INTERRES
    75   37  116 1    
    76   38   39 2    
    77   38   40 1    
    78   40   41 1    
    79   40   42 1    
    80   40  117 1    
    81   41  118 1    
    82   41  119 1    
    83   41  120 1    
    84   42   43 am   BACKBONE|DICT|INTERRES
    85   42  121 1    
    86   43   44 2    
    87   43   45 1    
    88   45   46 1    
    89   45   47 1    
    90   45  122 1    
    91   46  123 1    
    92   46  124 1    
    93   46  125 1    
    94   47   48 am   BACKBONE|DICT|INTERRES
    95   47  126 1    
    96   48   49 2    
    97   48   50 1    
    98   50   51 1    
    99   50   52 1    
   100   50  127 1    
   101   51  128 1    
   102   51  129 1    
   103   51  130 1    
   104   52   53 am   BACKBONE|DICT|INTERRES
   105   52  131 1    
   106   53   54 2    
   107   53   55 1    
   108   55   56 1    
   109   55   59 1    
   110   55  132 1    
   111   56   57 1    
   112   56  133 1    
   113   56  134 1    
   114   57   58 1    
   115   58  135 1    
   116   58  136 1    
   117   59   60 am   BACKBONE|DICT|INTERRES
   118   59  137 1    
   119   60   61 2    
   120   60   62 1    
   121   62   63 1    
   122   62   64 1    
   123   62  138 1    
   124   63  139 1    
   125   63  140 1    
   126   63  141 1    
   127   64   65 am   BACKBONE|DICT|INTERRES
   128   64  142 1    
   129   65   66 2    
   130   65   67 1    
   131   67   68 1    
   132   67   69 1    
   133   67  143 1    
   134   68  144 1    
   135   68  145 1    
   136   68  146 1    
   137   69   70 am   BACKBONE|DICT|INTERRES
   138   69  147 1    
   139   70   71 2    
   140   70   72 1    
   141   72   73 1    
   142   72   74 1    
   143   72  148 1    
   144   73  149 1    
   145   73  150 1    
   146   73  151 1    
   147   74   75 am   BACKBONE|DICT|INTERRES
   148   74  152 1    
   149   75   76 2    
   150   75   77 1    
   151   77   78 1    
   152   77   79 1    
   153   77  153 1    
   154   78  154 1    
   155   78  155 1    
   156   78  156 1    
   157   79   80 am   BACKBONE|DICT|INTERRES
   158   79  157 1    
   159   80   81 2    
@<TRIPOS>SUBSTRUCTURE
     1 UNK         1 GROUP             0       ****    0 ROOT    
