@<TRIPOS>MOLECULE
3R207
157   159    1
SMALL
USER_CHARGES


@<TRIPOS>ATOM
      1 CA        -53.6760  -30.7830    4.0000 C.3       0 UNK        -0.1975 
      2 C         -53.1211  -29.4292    3.5854 C.2       0 UNK         0.4852 
      3 O         -53.4832  -28.9151    2.5261 O.2       0 UNK        -0.5216 
      4 N         -52.2378  -28.8543    4.4074 N.am      1 UNK        -0.4461 
      5 CA        -51.5427  -27.5941    4.1598 C.3       1 UNK         0.0864 
      6 C6        -52.4596  -26.3509    4.3910 C.3       14 UNK        -0.0898 
      7 S7        -52.4248  -25.5262    6.0241 S.3       14 UNK        -0.2598 
      8 C8        -53.6506  -26.4677    6.9924 C.3       14 UNK         0.0286 
      9 C9        -53.0039  -27.6173    7.7525 C.ar      14 UNK        -0.0844 
     10 C10       -52.0387  -27.3510    8.7265 C.ar      14 UNK        -0.0881 
     11 C11       -51.4038  -28.3901    9.4127 C.ar      14 UNK        -0.0643 
     12 C12       -51.7667  -29.7126    9.1339 C.ar      14 UNK        -0.0930 
     13 C13       -52.7410  -29.9941    8.1700 C.ar      14 UNK        -0.0827 
     14 C14       -53.3596  -28.9416    7.4876 C.ar      14 UNK        -0.1249 
     15 C15       -53.0860  -31.4333    7.8155 C.3       14 UNK         0.0141 
     16 S16       -54.7855  -31.8782    8.2908 S.3       14 UNK        -0.2313 
     17 C17       -54.5781  -32.3673   10.0347 C.3       14 UNK        -0.0915 
     18 CA        -55.3308  -31.4331   11.0158 C.3       13 UNK         0.0968 
     19 C         -55.3884  -32.0700   12.4368 C.2       13 UNK         0.5732 
     20 N         -54.7245  -31.5280   13.4513 N.am      13 UNK        -0.7310 
     21 O         -56.0600  -33.0823   12.6229 O.2       13 UNK        -0.5035 
     22 N         -54.7925  -30.0656   10.9791 N.am      13 UNK        -0.4233 
     23 C         -55.4121  -28.9940   11.4832 C.2       13 UNK         0.4989 
     24 O         -56.5642  -28.9989   11.9231 O.2       13 UNK        -0.4996 
     25 CA        -54.5828  -27.7024   11.5503 C.3       12 UNK         0.0216 
     26 CB        -55.2506  -26.5601   10.7682 C.3       12 UNK        -0.1964 
     27 N         -54.3627  -27.2910   12.9387 N.am      12 UNK        -0.4276 
     28 C         -53.7105  -28.0117   13.8606 C.2       12 UNK         0.5020 
     29 O         -53.1764  -29.0981   13.6245 O.2       12 UNK        -0.5489 
     30 CA        -53.6389  -27.4133   15.2775 C.3       11 UNK         0.0294 
     31 CB        -52.8966  -28.3276   16.2709 C.3       11 UNK        -0.2019 
     32 N         -52.9971  -26.0989   15.2853 N.am      11 UNK        -0.4493 
     33 C         -53.5872  -24.9350   14.9813 C.2       11 UNK         0.4932 
     34 O         -54.7487  -24.8509   14.5780 O.2       11 UNK        -0.5029 
     35 CA        -52.7269  -23.6657   15.1452 C.3       10 UNK         0.0280 
     36 CB        -53.5625  -22.3853   15.3519 C.3       10 UNK        -0.1976 
     37 N         -51.6978  -23.8167   16.1823 N.am      10 UNK        -0.4242 
     38 C         -51.8671  -23.9758   17.5051 C.2       10 UNK         0.5072 
     39 O         -52.9532  -23.8891   18.0786 O.2       10 UNK        -0.5224 
     40 CA        -50.6180  -24.3347   18.3308 C.3       9 UNK         0.0343 
     41 CB        -50.5808  -25.8507   18.5901 C.3       9 UNK        -0.2003 
     42 N         -49.3774  -23.9453   17.6547 N.am      9 UNK        -0.4272 
     43 C         -48.5849  -22.9279   18.0193 C.2       9 UNK         0.4988 
     44 O         -48.7633  -22.2407   19.0258 O.2       9 UNK        -0.5108 
     45 CA        -47.3906  -22.6104   17.0968 C.3       8 UNK         0.0248 
     46 CB        -46.1505  -23.4101   17.5280 C.3       8 UNK        -0.2001 
     47 N         -47.6665  -22.8673   15.6793 N.am      8 UNK        -0.4140 
     48 C         -48.5949  -22.2259   14.9553 C.2       8 UNK         0.5028 
     49 O         -49.2474  -21.2710   15.3776 O.2       8 UNK        -0.5428 
     50 CA        -48.8751  -22.7400   13.5304 C.3       7 UNK         0.0264 
     51 CB        -48.1629  -21.8421   12.5037 C.3       7 UNK        -0.1988 
     52 N         -48.5428  -24.1476   13.2540 N.am      7 UNK        -0.4454 
     53 C         -48.9298  -25.2257   13.9544 C.2       7 UNK         0.5027 
     54 O         -49.5469  -25.1477   15.0184 O.2       7 UNK        -0.5083 
     55 CA        -48.5677  -26.6301   13.4290 C.3       6 UNK         0.0844 
     56 C56       -49.8212  -27.4981   13.1504 C.3       14 UNK        -0.0967 
     57 S57       -50.8289  -26.9439   11.7287 S.3       14 UNK        -0.2604 
     58 C58       -50.2948  -28.0901   10.4151 C.3       14 UNK         0.0134 
     59 N         -47.6227  -26.6347   12.3036 N.am      6 UNK        -0.4116 
     60 C         -46.6182  -27.5172   12.1786 C.2       5 UNK         0.5034 
     61 O         -46.3473  -28.3611   13.0345 O.2       5 UNK        -0.5045 
     62 CA        -45.7694  -27.5000   10.8906 C.3       5 UNK         0.0224 
     63 CB        -46.1444  -28.6872    9.9879 C.3       5 UNK        -0.1978 
     64 N         -45.8753  -26.2639   10.1156 N.am      5 UNK        -0.4737 
     65 C         -45.3407  -25.0886   10.4780 C.2       4 UNK         0.5027 
     66 O         -44.6228  -24.9463   11.4675 O.2       4 UNK        -0.5211 
     67 CA        -45.6863  -23.8531    9.6195 C.3       4 UNK         0.0297 
     68 CB        -44.5203  -23.5157    8.6768 C.3       4 UNK        -0.1993 
     69 N         -46.9191  -23.9761    8.8309 N.am      4 UNK        -0.4486 
     70 C         -48.1286  -24.2800    9.3219 C.2       3 UNK         0.4961 
     71 O         -48.3460  -24.4694   10.5165 O.2       3 UNK        -0.5105 
     72 CA        -49.2771  -24.4775    8.3234 C.3       3 UNK         0.0299 
     73 CB        -50.0750  -23.1740    8.1673 C.3       3 UNK        -0.1972 
     74 N         -48.8905  -24.9846    7.0012 N.am      3 UNK        -0.4305 
     75 C         -48.1556  -26.0802    6.7526 C.2       2 UNK         0.5006 
     76 O         -47.6158  -26.7635    7.6256 O.2       2 UNK        -0.5106 
     77 CA        -48.0094  -26.4530    5.2650 C.3       2 UNK         0.0296 
     78 CB        -47.0564  -27.6459    5.0312 C.3       2 UNK        -0.2002 
     79 N         -49.3153  -26.6778    4.6270 N.am      2 UNK        -0.4032 
     80 C         -50.2193  -27.6168    4.9510 C.2       1 UNK         0.5000 
     81 O         -50.0418  -28.4855    5.8106 O.2       1 UNK        -0.5238 
     82 H82       -52.8828  -31.4283    4.3759 H         1 UNK         0.0889 
     83 H83       -54.1376  -31.2852    3.1500 H         1 UNK         0.0889 
     84 H84       -54.4323  -30.6651    4.7754 H         1 UNK         0.0889 
     85 H85       -51.9270  -29.3123    5.2574 H         1 UNK         0.3028 
     86 H86       -51.2542  -27.6022    3.1060 H         1 UNK         0.0864 
     87 H87       -53.4952  -26.5770    4.1332 H         1 UNK         0.0720 
     88 H88       -52.1666  -25.5827    3.6741 H         1 UNK         0.0720 
     89 H89       -54.4504  -26.8224    6.3409 H         1 UNK         0.0814 
     90 H90       -54.1178  -25.7937    7.7114 H         1 UNK         0.0814 
     91 H91       -51.7759  -26.3268    8.9409 H         1 UNK         0.1469 
     92 H92       -51.2703  -30.5247    9.6474 H         1 UNK         0.1381 
     93 H93       -54.1085  -29.1570    6.7383 H         1 UNK         0.1206 
     94 H94       -52.9850  -31.5615    6.7389 H         1 UNK         0.0813 
     95 H95       -52.3778  -32.1333    8.2614 H         1 UNK         0.0813 
     96 H96       -53.5186  -32.4133   10.2919 H         1 UNK         0.0638 
     97 H97       -54.9512  -33.3901   10.1157 H         1 UNK         0.0638 
     98 H98       -56.3684  -31.3764   10.6811 H         1 UNK         0.0568 
     99 H99       -54.7819  -31.9631   14.3574 H         1 UNK         0.3450 
    100 H100      -54.1624  -30.6885   13.3336 H         1 UNK         0.3450 
    101 H101      -53.8489  -29.9699   10.6332 H         1 UNK         0.2987 
    102 H102      -53.6057  -27.8899   11.1048 H         1 UNK         0.0766 
    103 H103      -54.6184  -25.6721   10.7494 H         1 UNK         0.0798 
    104 H104      -56.2128  -26.2817   11.1999 H         1 UNK         0.0798 
    105 H105      -55.4285  -26.8530    9.7327 H         1 UNK         0.0798 
    106 H106      -54.7646  -26.4076   13.2342 H         1 UNK         0.3198 
    107 H107      -54.6665  -27.3062   15.6322 H         1 UNK         0.0843 
    108 H108      -51.8572  -28.4837   15.9800 H         1 UNK         0.0831 
    109 H109      -53.3697  -29.3090   16.3254 H         1 UNK         0.0831 
    110 H110      -52.9054  -27.9102   17.2780 H         1 UNK         0.0831 
    111 H111      -52.0221  -26.0757   15.5465 H         1 UNK         0.3133 
    112 H112      -52.1853  -23.5527   14.2051 H         1 UNK         0.0566 
    113 H113      -52.9231  -21.5103   15.4694 H         1 UNK         0.0814 
    114 H114      -54.2103  -22.2001   14.4942 H         1 UNK         0.0814 
    115 H115      -54.2037  -22.4548   16.2309 H         1 UNK         0.0814 
    116 H116      -50.7671  -23.9970   15.8186 H         1 UNK         0.3091 
    117 H117      -50.7058  -23.8254   19.2927 H         1 UNK         0.0702 
    118 H118      -49.7423  -26.1199   19.2327 H         1 UNK         0.0785 
    119 H119      -50.4872  -26.4186   17.6634 H         1 UNK         0.0785 
    120 H120      -51.4911  -26.1859   19.0893 H         1 UNK         0.0785 
    121 H121      -49.1551  -24.4480   16.8013 H         1 UNK         0.2998 
    122 H122      -47.1662  -21.5469   17.2039 H         1 UNK         0.0697 
    123 H123      -46.3040  -24.4848   17.4213 H         1 UNK         0.0825 
    124 H124      -45.9081  -23.2184   18.5743 H         1 UNK         0.0825 
    125 H125      -45.2752  -23.1347   16.9395 H         1 UNK         0.0825 
    126 H126      -47.1682  -23.6298   15.2441 H         1 UNK         0.3029 
    127 H127      -49.9506  -22.6380   13.3741 H         1 UNK         0.0897 
    128 H128      -48.5251  -22.0277   11.4931 H         1 UNK         0.0792 
    129 H129      -48.3401  -20.7855   12.7109 H         1 UNK         0.0792 
    130 H130      -47.0838  -22.0000   12.5104 H         1 UNK         0.0792 
    131 H131      -48.1502  -24.3093   12.3309 H         1 UNK         0.3086 
    132 H132      -48.0671  -27.0834   14.2871 H         1 UNK         0.0583 
    133 H133      -49.5206  -28.5366   13.0088 H         1 UNK         0.1020 
    134 H134      -50.4693  -27.5189   14.0280 H         1 UNK         0.1020 
    135 H135      -49.4486  -27.6484    9.8869 H         1 UNK         0.0694 
    136 H136      -49.9325  -29.0193   10.8557 H         1 UNK         0.0694 
    137 H137      -47.8108  -25.9818   11.5482 H         1 UNK         0.2989 
    138 H138      -44.7270  -27.6205   11.1944 H         1 UNK         0.1055 
    139 H139      -46.0286  -29.6345   10.5162 H         1 UNK         0.0806 
    140 H140      -45.5080  -28.7302    9.1037 H         1 UNK         0.0806 
    141 H141      -47.1794  -28.6267    9.6499 H         1 UNK         0.0806 
    142 H142      -46.4548  -26.3008    9.2815 H         1 UNK         0.3061 
    143 H143      -45.8259  -23.0162   10.3068 H         1 UNK         0.0734 
    144 H144      -44.6996  -22.5856    8.1371 H         1 UNK         0.0832 
    145 H145      -43.5912  -23.3888    9.2346 H         1 UNK         0.0832 
    146 H146      -44.3538  -24.3058    7.9433 H         1 UNK         0.0832 
    147 H147      -46.8324  -23.8604    7.8320 H         1 UNK         0.3156 
    148 H148      -49.9320  -25.2267    8.7641 H         1 UNK         0.0589 
    149 H149      -49.4845  -22.3942    7.6849 H         1 UNK         0.0808 
    150 H150      -50.3900  -22.7907    9.1393 H         1 UNK         0.0808 
    151 H151      -50.9782  -23.3267    7.5770 H         1 UNK         0.0808 
    152 H152      -49.2959  -24.5029    6.2118 H         1 UNK         0.3098 
    153 H153      -47.5678  -25.5860    4.7712 H         1 UNK         0.0720 
    154 H154      -47.4038  -28.5514    5.5297 H         1 UNK         0.0791 
    155 H155      -46.0606  -27.4281    5.4191 H         1 UNK         0.0791 
    156 H156      -46.9500  -27.8672    3.9693 H         1 UNK         0.0791 
    157 H157      -49.5633  -26.0157    3.9047 H         1 UNK         0.3028 
@<TRIPOS>BOND
     1    1    2 1    
     2    1   82 1    
     3    1   83 1    
     4    1   84 1    
     5    2    3 2    
     6    2    4 am   BACKBONE|DICT|INTERRES
     7    4    5 1    
     8    4   85 1    
     9    5    6 1    
    10    5   80 1    
    11    5   86 1    
    12    6    7 1    
    13    6   87 1    
    14    6   88 1    
    15    7    8 1    
    16    8    9 1    
    17    8   89 1    
    18    8   90 1    
    19    9   10 ar   
    20    9   14 ar   
    21   10   11 ar   
    22   10   91 1    
    23   11   12 ar   
    24   11   58 1    
    25   12   13 ar   
    26   12   92 1    
    27   13   14 ar   
    28   13   15 1    
    29   14   93 1    
    30   15   16 1    
    31   15   94 1    
    32   15   95 1    
    33   16   17 1    
    34   17   18 1    
    35   17   96 1    
    36   17   97 1    
    37   18   19 1    
    38   18   22 1    
    39   18   98 1    
    40   19   20 am   BACKBONE|DICT|INTERRES
    41   19   21 2    
    42   20   99 1    
    43   20  100 1    
    44   22   23 am   BACKBONE|DICT|INTERRES
    45   22  101 1    
    46   23   24 2    
    47   23   25 1    
    48   25   26 1    
    49   25   27 1    
    50   25  102 1    
    51   26  103 1    
    52   26  104 1    
    53   26  105 1    
    54   27   28 am   BACKBONE|DICT|INTERRES
    55   27  106 1    
    56   28   29 2    
    57   28   30 1    
    58   30   31 1    
    59   30   32 1    
    60   30  107 1    
    61   31  108 1    
    62   31  109 1    
    63   31  110 1    
    64   32   33 am   BACKBONE|DICT|INTERRES
    65   32  111 1    
    66   33   34 2    
    67   33   35 1    
    68   35   36 1    
    69   35   37 1    
    70   35  112 1    
    71   36  113 1    
    72   36  114 1    
    73   36  115 1    
    74   37   38 am   BACKBONE|DICT|INTERRES
    75   37  116 1    
    76   38   39 2    
    77   38   40 1    
    78   40   41 1    
    79   40   42 1    
    80   40  117 1    
    81   41  118 1    
    82   41  119 1    
    83   41  120 1    
    84   42   43 am   BACKBONE|DICT|INTERRES
    85   42  121 1    
    86   43   44 2    
    87   43   45 1    
    88   45   46 1    
    89   45   47 1    
    90   45  122 1    
    91   46  123 1    
    92   46  124 1    
    93   46  125 1    
    94   47   48 am   BACKBONE|DICT|INTERRES
    95   47  126 1    
    96   48   49 2    
    97   48   50 1    
    98   50   51 1    
    99   50   52 1    
   100   50  127 1    
   101   51  128 1    
   102   51  129 1    
   103   51  130 1    
   104   52   53 am   BACKBONE|DICT|INTERRES
   105   52  131 1    
   106   53   54 2    
   107   53   55 1    
   108   55   56 1    
   109   55   59 1    
   110   55  132 1    
   111   56   57 1    
   112   56  133 1    
   113   56  134 1    
   114   57   58 1    
   115   58  135 1    
   116   58  136 1    
   117   59   60 am   BACKBONE|DICT|INTERRES
   118   59  137 1    
   119   60   61 2    
   120   60   62 1    
   121   62   63 1    
   122   62   64 1    
   123   62  138 1    
   124   63  139 1    
   125   63  140 1    
   126   63  141 1    
   127   64   65 am   BACKBONE|DICT|INTERRES
   128   64  142 1    
   129   65   66 2    
   130   65   67 1    
   131   67   68 1    
   132   67   69 1    
   133   67  143 1    
   134   68  144 1    
   135   68  145 1    
   136   68  146 1    
   137   69   70 am   BACKBONE|DICT|INTERRES
   138   69  147 1    
   139   70   71 2    
   140   70   72 1    
   141   72   73 1    
   142   72   74 1    
   143   72  148 1    
   144   73  149 1    
   145   73  150 1    
   146   73  151 1    
   147   74   75 am   BACKBONE|DICT|INTERRES
   148   74  152 1    
   149   75   76 2    
   150   75   77 1    
   151   77   78 1    
   152   77   79 1    
   153   77  153 1    
   154   78  154 1    
   155   78  155 1    
   156   78  156 1    
   157   79   80 am   BACKBONE|DICT|INTERRES
   158   79  157 1    
   159   80   81 2    
@<TRIPOS>SUBSTRUCTURE
     1 UNK         1 GROUP             0       ****    0 ROOT    
