@<TRIPOS>MOLECULE
3R207
157   159    1
SMALL
USER_CHARGES


@<TRIPOS>ATOM
      1 CA        -49.2624  -28.2319    0.4934 C.3       0 UNK        -0.1975 
      2 C         -47.8835  -28.6254    1.0201 C.2       0 UNK         0.4852 
      3 O         -46.9289  -28.6459    0.2445 O.2       0 UNK        -0.5216 
      4 N         -47.7212  -28.9594    2.3093 N.am      1 UNK        -0.4461 
      5 CA        -48.7235  -28.9057    3.3796 C.3       1 UNK         0.0864 
      6 C6        -48.2267  -29.6758    4.6284 C.3       14 UNK        -0.0898 
      7 S7        -49.5733  -30.1371    5.7705 S.3       14 UNK        -0.2598 
      8 C8        -49.2912  -28.9184    7.0872 C.3       14 UNK         0.0286 
      9 C9        -50.3087  -29.0304    8.2089 C.ar      14 UNK        -0.0844 
     10 C10       -49.9354  -29.5742    9.4418 C.ar      14 UNK        -0.0881 
     11 C11       -50.8331  -29.5936   10.5158 C.ar      14 UNK        -0.0643 
     12 C12       -52.1309  -29.1163   10.3171 C.ar      14 UNK        -0.0930 
     13 C13       -52.5314  -28.6112    9.0791 C.ar      14 UNK        -0.0827 
     14 C14       -51.6104  -28.5516    8.0302 C.ar      14 UNK        -0.1249 
     15 C15       -53.9640  -28.1415    8.8923 C.3       14 UNK         0.0141 
     16 S16       -54.1910  -26.4599    9.5374 S.3       14 UNK        -0.2313 
     17 C17       -56.0080  -26.3753    9.6616 C.3       14 UNK        -0.0915 
     18 CA        -56.5017  -26.2254   11.1289 C.3       13 UNK         0.0968 
     19 C         -58.0068  -25.8311   11.2018 C.2       13 UNK         0.5732 
     20 N         -58.8079  -26.4082   12.0911 N.am      13 UNK        -0.7310 
     21 O         -58.4605  -24.9687   10.4530 O.2       13 UNK        -0.5035 
     22 N         -56.1828  -27.4049   11.9587 N.am      13 UNK        -0.4233 
     23 C         -55.2700  -27.4283   12.9362 C.2       13 UNK         0.4989 
     24 O         -54.5028  -26.4942   13.1885 O.2       13 UNK        -0.4996 
     25 CA        -55.2257  -28.6911   13.8134 C.3       12 UNK         0.0216 
     26 CB        -54.7765  -29.9554   13.0562 C.3       12 UNK        -0.1964 
     27 N         -54.3164  -28.4175   14.9174 N.am      12 UNK        -0.4276 
     28 C         -54.2692  -29.0079   16.1145 C.2       12 UNK         0.5020 
     29 O         -54.9583  -29.9772   16.4344 O.2       12 UNK        -0.5489 
     30 CA        -53.2931  -28.3921   17.1358 C.3       11 UNK         0.0294 
     31 CB        -51.9859  -29.1991   17.1896 C.3       11 UNK        -0.2019 
     32 N         -52.9867  -26.9892   16.8291 N.am      11 UNK        -0.4493 
     33 C         -53.8342  -25.9718   17.0471 C.2       11 UNK         0.4932 
     34 O         -54.9103  -26.1010   17.6338 O.2       11 UNK        -0.5029 
     35 CA        -53.4287  -24.5955   16.4853 C.3       10 UNK         0.0280 
     36 CB        -54.2398  -23.4283   17.0878 C.3       10 UNK        -0.1976 
     37 N         -51.9886  -24.3360   16.5687 N.am      10 UNK        -0.4242 
     38 C         -51.2376  -24.2371   17.6769 C.2       10 UNK         0.5072 
     39 O         -51.6876  -24.3307   18.8199 O.2       10 UNK        -0.5224 
     40 CA        -49.7221  -24.0125   17.4991 C.3       9 UNK         0.0343 
     41 CB        -48.9431  -25.2461   17.9865 C.3       9 UNK        -0.2003 
     42 N         -49.3209  -23.7144   16.1213 N.am      9 UNK        -0.4272 
     43 C         -49.5306  -22.5530   15.4857 C.2       9 UNK         0.4988 
     44 O         -50.0171  -21.5569   16.0213 O.2       9 UNK        -0.5108 
     45 CA        -49.1811  -22.5118   13.9861 C.3       8 UNK         0.0248 
     46 CB        -47.6910  -22.1978   13.7807 C.3       8 UNK        -0.2001 
     47 N         -49.5276  -23.7504   13.2789 N.am      8 UNK        -0.4140 
     48 C         -50.7716  -24.2399   13.1568 C.2       8 UNK         0.5028 
     49 O         -51.7720  -23.6804   13.6030 O.2       8 UNK        -0.5428 
     50 CA        -50.9164  -25.6102   12.4780 C.3       7 UNK         0.0264 
     51 CB        -50.8515  -25.4801   10.9477 C.3       7 UNK        -0.1988 
     52 N         -49.8952  -26.5471   12.9474 N.am      7 UNK        -0.4454 
     53 C         -49.8772  -27.0941   14.1720 C.2       7 UNK         0.5027 
     54 O         -50.7581  -26.9096   15.0144 O.2       7 UNK        -0.5083 
     55 CA        -48.6516  -27.9625   14.5341 C.3       6 UNK         0.0844 
     56 C56       -48.8530  -29.4510   14.1515 C.3       14 UNK        -0.0967 
     57 S57       -48.7125  -29.7688   12.3558 S.3       14 UNK        -0.2604 
     58 C58       -50.4411  -30.1306   11.8912 C.3       14 UNK         0.0134 
     59 N         -47.3993  -27.4246   13.9924 N.am      6 UNK        -0.4116 
     60 C         -46.8390  -26.2619   14.3495 C.2       5 UNK         0.5034 
     61 O         -47.2950  -25.5215   15.2179 O.2       5 UNK        -0.5045 
     62 CA        -45.5851  -25.8254   13.5709 C.3       5 UNK         0.0224 
     63 CB        -44.3214  -26.4313   14.2015 C.3       5 UNK        -0.1978 
     64 N         -45.6302  -26.1564   12.1408 N.am      5 UNK        -0.4737 
     65 C         -46.5696  -25.7235   11.2900 C.2       4 UNK         0.5027 
     66 O         -47.5103  -24.9970   11.6257 O.2       4 UNK        -0.5211 
     67 CA        -46.4692  -26.2150    9.8398 C.3       4 UNK         0.0297 
     68 CB        -46.6714  -27.7418    9.7719 C.3       4 UNK        -0.1993 
     69 N         -47.4970  -25.5175    9.0717 N.am      4 UNK        -0.4486 
     70 C         -47.7193  -25.5717    7.7559 C.2       3 UNK         0.4961 
     71 O         -47.0479  -26.2322    6.9605 O.2       3 UNK        -0.5105 
     72 CA        -48.8896  -24.7221    7.2480 C.3       3 UNK         0.0299 
     73 CB        -48.4636  -23.2577    7.0426 C.3       3 UNK        -0.1972 
     74 N         -49.3929  -25.2700    5.9903 N.am      3 UNK        -0.4305 
     75 C         -50.6670  -25.2287    5.5873 C.2       2 UNK         0.5006 
     76 O         -51.5620  -24.6781    6.2291 O.2       2 UNK        -0.5106 
     77 CA        -51.0353  -25.9090    4.2541 C.3       2 UNK         0.0296 
     78 CB        -50.8710  -24.9323    3.0722 C.3       2 UNK        -0.2002 
     79 N         -50.3770  -27.1976    3.9852 N.am      2 UNK        -0.4032 
     80 C         -49.0867  -27.4424    3.7156 C.2       1 UNK         0.5000 
     81 O         -48.2036  -26.5819    3.7299 O.2       1 UNK        -0.5238 
     82 H82       -50.0320  -28.9329    0.8134 H         1 UNK         0.0889 
     83 H83       -49.2630  -28.2271   -0.5965 H         1 UNK         0.0889 
     84 H84       -49.5323  -27.2305    0.8271 H         1 UNK         0.0889 
     85 H85       -46.7879  -29.1905    2.6177 H         1 UNK         0.3028 
     86 H86       -49.6169  -29.4137    3.0116 H         1 UNK         0.0864 
     87 H87       -47.4477  -29.1191    5.1544 H         1 UNK         0.0720 
     88 H88       -47.7582  -30.6120    4.3195 H         1 UNK         0.0720 
     89 H89       -49.3373  -27.9155    6.6684 H         1 UNK         0.0814 
     90 H90       -48.2795  -29.0417    7.4744 H         1 UNK         0.0814 
     91 H91       -48.9338  -29.9591    9.5716 H         1 UNK         0.1469 
     92 H92       -52.8401  -29.1250   11.1287 H         1 UNK         0.1381 
     93 H93       -51.9048  -28.1359    7.0762 H         1 UNK         0.1206 
     94 H94       -54.6372  -28.8268    9.4099 H         1 UNK         0.0813 
     95 H95       -54.2448  -28.1663    7.8383 H         1 UNK         0.0813 
     96 H96       -56.3160  -25.5179    9.0607 H         1 UNK         0.0638 
     97 H97       -56.4625  -27.2492    9.1924 H         1 UNK         0.0638 
     98 H98       -55.9953  -25.3528   11.5454 H         1 UNK         0.0568 
     99 H99       -58.4567  -27.0804   12.7527 H         1 UNK         0.3450 
    100 H100      -59.7767  -26.1320   12.1242 H         1 UNK         0.3450 
    101 H101      -56.7712  -28.2120   11.8099 H         1 UNK         0.2987 
    102 H102      -56.2308  -28.8448   14.2114 H         1 UNK         0.0766 
    103 H103      -55.0528  -30.8523   13.6110 H         1 UNK         0.0798 
    104 H104      -53.6961  -29.9838   12.9267 H         1 UNK         0.0798 
    105 H105      -55.2377  -30.0338   12.0712 H         1 UNK         0.0798 
    106 H106      -53.7502  -27.5904   14.7630 H         1 UNK         0.3198 
    107 H107      -53.7655  -28.4394   18.1195 H         1 UNK         0.0843 
    108 H108      -51.4909  -29.2291   16.2193 H         1 UNK         0.0831 
    109 H109      -52.1788  -30.2305   17.4876 H         1 UNK         0.0831 
    110 H110      -51.2866  -28.7771   17.9116 H         1 UNK         0.0831 
    111 H111      -52.1298  -26.8141   16.3065 H         1 UNK         0.3133 
    112 H112      -53.6603  -24.6339   15.4199 H         1 UNK         0.0566 
    113 H113      -53.9396  -22.4737   16.6558 H         1 UNK         0.0814 
    114 H114      -55.3055  -23.5506   16.8906 H         1 UNK         0.0814 
    115 H115      -54.1157  -23.3625   18.1691 H         1 UNK         0.0814 
    116 H116      -51.5275  -24.2339   15.6719 H         1 UNK         0.3091 
    117 H117      -49.4448  -23.1631   18.1268 H         1 UNK         0.0702 
    118 H118      -47.8666  -25.0830   17.9311 H         1 UNK         0.0785 
    119 H119      -49.1797  -26.1297   17.3925 H         1 UNK         0.0785 
    120 H120      -49.1812  -25.4775   19.0256 H         1 UNK         0.0785 
    121 H121      -48.8218  -24.4518   15.6303 H         1 UNK         0.2998 
    122 H122      -49.7632  -21.7063   13.5337 H         1 UNK         0.0697 
    123 H123      -47.0528  -22.9554   14.2347 H         1 UNK         0.0825 
    124 H124      -47.4297  -21.2399   14.2323 H         1 UNK         0.0825 
    125 H125      -47.4387  -22.1379   12.7217 H         1 UNK         0.0825 
    126 H126      -48.7638  -24.2584   12.8387 H         1 UNK         0.3029 
    127 H127      -51.8957  -26.0165   12.7402 H         1 UNK         0.0897 
    128 H128      -49.9310  -25.0045   10.6148 H         1 UNK         0.0792 
    129 H129      -51.6790  -24.8728   10.5791 H         1 UNK         0.0792 
    130 H130      -50.9239  -26.4519   10.4597 H         1 UNK         0.0792 
    131 H131      -49.1194  -26.7250   12.3262 H         1 UNK         0.3086 
    132 H132      -48.5645  -27.9229   15.6221 H         1 UNK         0.0583 
    133 H133      -49.7995  -29.8323   14.5381 H         1 UNK         0.1020 
    134 H134      -48.0866  -30.0501   14.6459 H         1 UNK         0.1020 
    135 H135      -50.5966  -31.2098   11.9117 H         1 UNK         0.0694 
    136 H136      -51.1071  -29.7050   12.6432 H         1 UNK         0.0694 
    137 H137      -46.9650  -27.9665   13.2597 H         1 UNK         0.2989 
    138 H138      -45.5173  -24.7387   13.6523 H         1 UNK         0.1055 
    139 H139      -44.2575  -26.1828   15.2621 H         1 UNK         0.0806 
    140 H140      -43.4178  -26.0476   13.7274 H         1 UNK         0.0806 
    141 H141      -44.3082  -27.5189   14.1205 H         1 UNK         0.0806 
    142 H142      -44.8890  -26.7457   11.7880 H         1 UNK         0.3061 
    143 H143      -45.4871  -25.9465    9.4464 H         1 UNK         0.0734 
    144 H144      -46.5258  -28.1208    8.7615 H         1 UNK         0.0832 
    145 H145      -45.9633  -28.2745   10.4072 H         1 UNK         0.0832 
    146 H146      -47.6734  -28.0174   10.0968 H         1 UNK         0.0832 
    147 H147      -48.0639  -24.9132    9.6559 H         1 UNK         0.3156 
    148 H148      -49.6807  -24.7643    8.0003 H         1 UNK         0.0589 
    149 H149      -48.0825  -22.8239    7.9679 H         1 UNK         0.0808 
    150 H150      -47.6773  -23.1710    6.2915 H         1 UNK         0.0808 
    151 H151      -49.3037  -22.6424    6.7200 H         1 UNK         0.0808 
    152 H152      -48.7052  -25.7425    5.4061 H         1 UNK         0.3098 
    153 H153      -52.0982  -26.1467    4.3236 H         1 UNK         0.0720 
    154 H154      -51.2160  -25.3767    2.1386 H         1 UNK         0.0791 
    155 H155      -49.8337  -24.6251    2.9353 H         1 UNK         0.0791 
    156 H156      -51.4556  -24.0257    3.2343 H         1 UNK         0.0791 
    157 H157      -51.0027  -27.9920    4.0006 H         1 UNK         0.3028 
@<TRIPOS>BOND
     1    1    2 1    
     2    1   82 1    
     3    1   83 1    
     4    1   84 1    
     5    2    3 2    
     6    2    4 am   BACKBONE|DICT|INTERRES
     7    4    5 1    
     8    4   85 1    
     9    5    6 1    
    10    5   80 1    
    11    5   86 1    
    12    6    7 1    
    13    6   87 1    
    14    6   88 1    
    15    7    8 1    
    16    8    9 1    
    17    8   89 1    
    18    8   90 1    
    19    9   10 ar   
    20    9   14 ar   
    21   10   11 ar   
    22   10   91 1    
    23   11   12 ar   
    24   11   58 1    
    25   12   13 ar   
    26   12   92 1    
    27   13   14 ar   
    28   13   15 1    
    29   14   93 1    
    30   15   16 1    
    31   15   94 1    
    32   15   95 1    
    33   16   17 1    
    34   17   18 1    
    35   17   96 1    
    36   17   97 1    
    37   18   19 1    
    38   18   22 1    
    39   18   98 1    
    40   19   20 am   BACKBONE|DICT|INTERRES
    41   19   21 2    
    42   20   99 1    
    43   20  100 1    
    44   22   23 am   BACKBONE|DICT|INTERRES
    45   22  101 1    
    46   23   24 2    
    47   23   25 1    
    48   25   26 1    
    49   25   27 1    
    50   25  102 1    
    51   26  103 1    
    52   26  104 1    
    53   26  105 1    
    54   27   28 am   BACKBONE|DICT|INTERRES
    55   27  106 1    
    56   28   29 2    
    57   28   30 1    
    58   30   31 1    
    59   30   32 1    
    60   30  107 1    
    61   31  108 1    
    62   31  109 1    
    63   31  110 1    
    64   32   33 am   BACKBONE|DICT|INTERRES
    65   32  111 1    
    66   33   34 2    
    67   33   35 1    
    68   35   36 1    
    69   35   37 1    
    70   35  112 1    
    71   36  113 1    
    72   36  114 1    
    73   36  115 1    
    74   37   38 am   BACKBONE|DICT|INTERRES
    75   37  116 1    
    76   38   39 2    
    77   38   40 1    
    78   40   41 1    
    79   40   42 1    
    80   40  117 1    
    81   41  118 1    
    82   41  119 1    
    83   41  120 1    
    84   42   43 am   BACKBONE|DICT|INTERRES
    85   42  121 1    
    86   43   44 2    
    87   43   45 1    
    88   45   46 1    
    89   45   47 1    
    90   45  122 1    
    91   46  123 1    
    92   46  124 1    
    93   46  125 1    
    94   47   48 am   BACKBONE|DICT|INTERRES
    95   47  126 1    
    96   48   49 2    
    97   48   50 1    
    98   50   51 1    
    99   50   52 1    
   100   50  127 1    
   101   51  128 1    
   102   51  129 1    
   103   51  130 1    
   104   52   53 am   BACKBONE|DICT|INTERRES
   105   52  131 1    
   106   53   54 2    
   107   53   55 1    
   108   55   56 1    
   109   55   59 1    
   110   55  132 1    
   111   56   57 1    
   112   56  133 1    
   113   56  134 1    
   114   57   58 1    
   115   58  135 1    
   116   58  136 1    
   117   59   60 am   BACKBONE|DICT|INTERRES
   118   59  137 1    
   119   60   61 2    
   120   60   62 1    
   121   62   63 1    
   122   62   64 1    
   123   62  138 1    
   124   63  139 1    
   125   63  140 1    
   126   63  141 1    
   127   64   65 am   BACKBONE|DICT|INTERRES
   128   64  142 1    
   129   65   66 2    
   130   65   67 1    
   131   67   68 1    
   132   67   69 1    
   133   67  143 1    
   134   68  144 1    
   135   68  145 1    
   136   68  146 1    
   137   69   70 am   BACKBONE|DICT|INTERRES
   138   69  147 1    
   139   70   71 2    
   140   70   72 1    
   141   72   73 1    
   142   72   74 1    
   143   72  148 1    
   144   73  149 1    
   145   73  150 1    
   146   73  151 1    
   147   74   75 am   BACKBONE|DICT|INTERRES
   148   74  152 1    
   149   75   76 2    
   150   75   77 1    
   151   77   78 1    
   152   77   79 1    
   153   77  153 1    
   154   78  154 1    
   155   78  155 1    
   156   78  156 1    
   157   79   80 am   BACKBONE|DICT|INTERRES
   158   79  157 1    
   159   80   81 2    
@<TRIPOS>SUBSTRUCTURE
     1 UNK         1 GROUP             0       ****    0 ROOT    
