@<TRIPOS>MOLECULE
3R207
157   159    1
SMALL
USER_CHARGES


@<TRIPOS>ATOM
      1 CA        -51.5407  -21.1081    4.9150 C.3       0 UNK        -0.1975 
      2 C         -50.9285  -22.2151    5.7598 C.2       0 UNK         0.4852 
      3 O         -50.1695  -21.9314    6.6877 O.2       0 UNK        -0.5216 
      4 N         -51.2366  -23.4804    5.4399 N.am      1 UNK        -0.4461 
      5 CA        -50.7850  -24.6646    6.1855 C.3       1 UNK         0.0864 
      6 C6        -51.6525  -25.9145    5.8960 C.3       14 UNK        -0.0898 
      7 S7        -53.3916  -25.6860    6.4076 S.3       14 UNK        -0.2598 
      8 C8        -53.3313  -26.0167    8.2023 C.3       14 UNK         0.0286 
      9 C9        -53.2883  -27.5042    8.5243 C.ar      14 UNK        -0.0844 
     10 C10       -52.0673  -28.1782    8.6361 C.ar      14 UNK        -0.0881 
     11 C11       -52.0319  -29.5477    8.9192 C.ar      14 UNK        -0.0643 
     12 C12       -53.2320  -30.2411    9.0922 C.ar      14 UNK        -0.0930 
     13 C13       -54.4579  -29.5754    9.0119 C.ar      14 UNK        -0.0827 
     14 C14       -54.4796  -28.2076    8.7254 C.ar      14 UNK        -0.1249 
     15 C15       -55.7605  -30.3356    9.2127 C.3       14 UNK         0.0141 
     16 S16       -56.2866  -30.3252   10.9547 S.3       14 UNK        -0.2313 
     17 C17       -55.2216  -31.6282   11.6598 C.3       14 UNK        -0.0915 
     18 CA        -55.2681  -31.6620   13.2062 C.3       13 UNK         0.0968 
     19 C         -54.4718  -32.8799   13.7493 C.2       13 UNK         0.5732 
     20 N         -55.1237  -34.0220   13.9189 N.am      13 UNK        -0.7310 
     21 O         -53.2648  -32.8095   13.9756 O.2       13 UNK        -0.5035 
     22 N         -54.8057  -30.3905   13.7769 N.am      13 UNK        -0.4233 
     23 C         -54.9355  -30.0340   15.0593 C.2       13 UNK         0.4989 
     24 O         -55.5032  -30.7257   15.9065 O.2       13 UNK        -0.4996 
     25 CA        -54.3384  -28.6802   15.4865 C.3       12 UNK         0.0216 
     26 CB        -53.0552  -28.8957   16.3029 C.3       12 UNK        -0.1964 
     27 N         -54.0598  -27.7406   14.3933 N.am      12 UNK        -0.4276 
     28 C         -54.9873  -27.1564   13.6230 C.2       12 UNK         0.5020 
     29 O         -56.1930  -27.4037   13.6875 O.2       12 UNK        -0.5489 
     30 CA        -54.4573  -26.0806   12.6579 C.3       11 UNK         0.0294 
     31 CB        -55.5397  -25.5209   11.7113 C.3       11 UNK        -0.2019 
     32 N         -53.7799  -24.9999   13.3899 N.am      11 UNK        -0.4493 
     33 C         -54.3046  -24.1925   14.3264 C.2       11 UNK         0.4932 
     34 O         -55.4852  -24.2102   14.6783 O.2       11 UNK        -0.5029 
     35 CA        -53.3328  -23.1822   14.9623 C.3       10 UNK         0.0280 
     36 CB        -53.9419  -22.3997   16.1466 C.3       10 UNK        -0.1976 
     37 N         -52.0433  -23.7843   15.3199 N.am      10 UNK        -0.4242 
     38 C         -51.7839  -24.6893   16.2784 C.2       10 UNK         0.5072 
     39 O         -52.6442  -25.1601   17.0230 O.2       10 UNK        -0.5224 
     40 CA        -50.3152  -25.1416   16.4493 C.3       9 UNK         0.0343 
     41 CB        -50.1953  -26.6437   16.7605 C.3       9 UNK        -0.2003 
     42 N         -49.5015  -24.8507   15.2695 N.am      9 UNK        -0.4272 
     43 C         -48.7778  -23.7414   15.0679 C.2       9 UNK         0.4988 
     44 O         -48.6325  -22.8545   15.9087 O.2       9 UNK        -0.5108 
     45 CA        -48.1382  -23.5738   13.6759 C.3       8 UNK         0.0248 
     46 CB        -46.6457  -23.9395   13.7209 C.3       8 UNK        -0.2001 
     47 N         -48.7883  -24.3611   12.6223 N.am      8 UNK        -0.4140 
     48 C         -50.0615  -24.2296   12.2204 C.2       8 UNK         0.5028 
     49 O         -50.8550  -23.4169   12.6923 O.2       8 UNK        -0.5428 
     50 CA        -50.5438  -25.2241   11.1576 C.3       7 UNK         0.0264 
     51 CB        -49.9459  -24.8494    9.7958 C.3       7 UNK        -0.1988 
     52 N         -50.1670  -26.6003   11.4791 N.am      7 UNK        -0.4454 
     53 C         -50.5706  -27.3117   12.5427 C.2       7 UNK         0.5027 
     54 O         -51.4012  -26.9193   13.3636 O.2       7 UNK        -0.5083 
     55 CA        -49.8330  -28.6384   12.7775 C.3       6 UNK         0.0844 
     56 C56       -50.2273  -29.7434   11.7548 C.3       14 UNK        -0.0967 
     57 S57       -49.4886  -29.5176   10.0941 S.3       14 UNK        -0.2604 
     58 C58       -50.7088  -30.3003    8.9941 C.3       14 UNK         0.0134 
     59 N         -48.4085  -28.3205   12.7960 N.am      6 UNK        -0.4116 
     60 C         -47.3853  -29.0994   13.1394 C.2       5 UNK         0.5034 
     61 O         -47.5048  -30.2393   13.5915 O.2       5 UNK        -0.5045 
     62 CA        -45.9891  -28.4781   12.9068 C.3       5 UNK         0.0224 
     63 CB        -44.8481  -29.4098   13.3560 C.3       5 UNK        -0.1978 
     64 N         -45.7578  -28.0869   11.5066 N.am      5 UNK        -0.4737 
     65 C         -46.3259  -27.0593   10.8587 C.2       4 UNK         0.5027 
     66 O         -47.1517  -26.3019   11.3780 O.2       4 UNK        -0.5211 
     67 CA        -45.9455  -26.8938    9.3765 C.3       4 UNK         0.0297 
     68 CB        -46.6318  -27.9608    8.5093 C.3       4 UNK        -0.1993 
     69 N         -46.3022  -25.5786    8.8432 N.am      4 UNK        -0.4486 
     70 C         -45.6743  -24.4302    9.1344 C.2       3 UNK         0.4961 
     71 O         -44.7149  -24.3567    9.9047 O.2       3 UNK        -0.5105 
     72 CA        -46.1974  -23.1529    8.4359 C.3       3 UNK         0.0299 
     73 CB        -45.1282  -22.0440    8.3411 C.3       3 UNK        -0.1972 
     74 N         -46.8027  -23.4057    7.1197 N.am      3 UNK        -0.4305 
     75 C         -46.2291  -23.9933    6.0548 C.2       2 UNK         0.5006 
     76 O         -45.0339  -24.2876    6.0019 O.2       2 UNK        -0.5106 
     77 CA        -47.1373  -24.3314    4.8485 C.3       2 UNK         0.0296 
     78 CB        -46.7700  -25.6942    4.2226 C.3       2 UNK        -0.2002 
     79 N         -48.5826  -24.2745    5.1219 N.am      2 UNK        -0.4032 
     80 C         -49.2756  -24.9717    6.0381 C.2       1 UNK         0.5000 
     81 O         -48.7569  -25.7933    6.7967 O.2       1 UNK        -0.5238 
     82 H82       -52.1432  -20.4503    5.5408 H         1 UNK         0.0889 
     83 H83       -52.1794  -21.5036    4.1254 H         1 UNK         0.0889 
     84 H84       -50.7555  -20.5120    4.4508 H         1 UNK         0.0889 
     85 H85       -51.8715  -23.6615    4.6745 H         1 UNK         0.3028 
     86 H86       -50.9216  -24.4187    7.2365 H         1 UNK         0.0864 
     87 H87       -51.2540  -26.8001    6.3900 H         1 UNK         0.0720 
     88 H88       -51.6377  -26.1435    4.8291 H         1 UNK         0.0720 
     89 H89       -54.2168  -25.5733    8.6602 H         1 UNK         0.0814 
     90 H90       -52.4839  -25.5029    8.6514 H         1 UNK         0.0814 
     91 H91       -51.1386  -27.6453    8.4935 H         1 UNK         0.1469 
     92 H92       -53.2119  -31.3044    9.2858 H         1 UNK         0.1381 
     93 H93       -55.4270  -27.6910    8.6515 H         1 UNK         0.1206 
     94 H94       -56.5473  -29.8825    8.6077 H         1 UNK         0.0813 
     95 H95       -55.6642  -31.3640    8.8610 H         1 UNK         0.0813 
     96 H96       -55.5456  -32.5836   11.2426 H         1 UNK         0.0638 
     97 H97       -54.1944  -31.4769   11.3302 H         1 UNK         0.0638 
     98 H98       -56.3100  -31.7876   13.5082 H         1 UNK         0.0568 
     99 H99       -56.1103  -34.0943   13.7244 H         1 UNK         0.3450 
    100 H100      -54.6196  -34.8273   14.2557 H         1 UNK         0.3450 
    101 H101      -54.3361  -29.7624   13.1444 H         1 UNK         0.2987 
    102 H102      -55.0757  -28.2081   16.1393 H         1 UNK         0.0766 
    103 H103      -52.7445  -27.9686   16.7820 H         1 UNK         0.0798 
    104 H104      -52.2338  -29.2556   15.6822 H         1 UNK         0.0798 
    105 H105      -53.2093  -29.6262   17.0984 H         1 UNK         0.0798 
    106 H106      -53.0925  -27.4594   14.2576 H         1 UNK         0.3198 
    107 H107      -53.7048  -26.5639   12.0326 H         1 UNK         0.0843 
    108 H108      -56.3556  -25.0475   12.2582 H         1 UNK         0.0831 
    109 H109      -55.9742  -26.3194   11.1083 H         1 UNK         0.0831 
    110 H110      -55.1237  -24.7842   11.0246 H         1 UNK         0.0831 
    111 H111      -52.7844  -24.9230   13.2251 H         1 UNK         0.3133 
    112 H112      -53.1103  -22.4542   14.1807 H         1 UNK         0.0566 
    113 H113      -53.2303  -21.6840   16.5579 H         1 UNK         0.0814 
    114 H114      -54.8201  -21.8362   15.8292 H         1 UNK         0.0814 
    115 H115      -54.2584  -23.0613   16.9533 H         1 UNK         0.0814 
    116 H116      -51.2792  -23.5129   14.7103 H         1 UNK         0.3091 
    117 H117      -49.9194  -24.5940   17.3070 H         1 UNK         0.0702 
    118 H118      -50.7414  -26.9042   17.6679 H         1 UNK         0.0785 
    119 H119      -50.5871  -27.2553   15.9482 H         1 UNK         0.0785 
    120 H120      -49.1561  -26.9312   16.9212 H         1 UNK         0.0785 
    121 H121      -49.5892  -25.5033   14.5045 H         1 UNK         0.2998 
    122 H122      -48.2273  -22.5207   13.4015 H         1 UNK         0.0697 
    123 H123      -46.4954  -24.9887   13.9779 H         1 UNK         0.0825 
    124 H124      -46.1174  -23.3411   14.4644 H         1 UNK         0.0825 
    125 H125      -46.1635  -23.7608   12.7590 H         1 UNK         0.0825 
    126 H126      -48.2019  -25.0469   12.1482 H         1 UNK         0.3029 
    127 H127      -51.6326  -25.1734   11.0956 H         1 UNK         0.0897 
    128 H128      -48.8594  -24.7707    9.8312 H         1 UNK         0.0792 
    129 H129      -50.3287  -23.8865    9.4551 H         1 UNK         0.0792 
    130 H130      -50.1874  -25.5973    9.0446 H         1 UNK         0.0792 
    131 H131      -49.4938  -27.0314   10.8592 H         1 UNK         0.3086 
    132 H132      -50.1055  -28.9843   13.7767 H         1 UNK         0.0583 
    133 H133      -49.8974  -30.7133   12.1298 H         1 UNK         0.1020 
    134 H134      -51.3134  -29.8186   11.6730 H         1 UNK         0.1020 
    135 H135      -50.2855  -30.3545    7.9904 H         1 UNK         0.0694 
    136 H136      -50.8604  -31.3304    9.3204 H         1 UNK         0.0694 
    137 H137      -48.1570  -27.4192   12.3982 H         1 UNK         0.2989 
    138 H138      -45.9395  -27.5767   13.5221 H         1 UNK         0.1055 
    139 H139      -44.9585  -29.6863   14.4056 H         1 UNK         0.0806 
    140 H140      -43.8762  -28.9267   13.2528 H         1 UNK         0.0806 
    141 H141      -44.8285  -30.3334   12.7759 H         1 UNK         0.0806 
    142 H142      -45.1259  -28.6797   10.9871 H         1 UNK         0.3061 
    143 H143      -44.8636  -27.0159    9.2915 H         1 UNK         0.0734 
    144 H144      -46.2741  -27.9211    7.4802 H         1 UNK         0.0832 
    145 H145      -46.4390  -28.9685    8.8794 H         1 UNK         0.0832 
    146 H146      -47.7129  -27.8214    8.4851 H         1 UNK         0.0832 
    147 H147      -47.0888  -25.5531    8.2041 H         1 UNK         0.3156 
    148 H148      -47.0029  -22.7782    9.0692 H         1 UNK         0.0589 
    149 H149      -44.2573  -22.3698    7.7715 H         1 UNK         0.0808 
    150 H150      -45.5261  -21.1487    7.8636 H         1 UNK         0.0808 
    151 H151      -44.7774  -21.7517    9.3316 H         1 UNK         0.0808 
    152 H152      -47.7862  -23.1816    7.0466 H         1 UNK         0.3098 
    153 H153      -46.9401  -23.5602    4.1026 H         1 UNK         0.0720 
    154 H154      -47.3986  -25.9177    3.3607 H         1 UNK         0.0791 
    155 H155      -46.8800  -26.5096    4.9386 H         1 UNK         0.0791 
    156 H156      -45.7358  -25.7039    3.8762 H         1 UNK         0.0791 
    157 H157      -49.1019  -23.6043    4.5720 H         1 UNK         0.3028 
@<TRIPOS>BOND
     1    1    2 1    
     2    1   82 1    
     3    1   83 1    
     4    1   84 1    
     5    2    3 2    
     6    2    4 am   BACKBONE|DICT|INTERRES
     7    4    5 1    
     8    4   85 1    
     9    5    6 1    
    10    5   80 1    
    11    5   86 1    
    12    6    7 1    
    13    6   87 1    
    14    6   88 1    
    15    7    8 1    
    16    8    9 1    
    17    8   89 1    
    18    8   90 1    
    19    9   10 ar   
    20    9   14 ar   
    21   10   11 ar   
    22   10   91 1    
    23   11   12 ar   
    24   11   58 1    
    25   12   13 ar   
    26   12   92 1    
    27   13   14 ar   
    28   13   15 1    
    29   14   93 1    
    30   15   16 1    
    31   15   94 1    
    32   15   95 1    
    33   16   17 1    
    34   17   18 1    
    35   17   96 1    
    36   17   97 1    
    37   18   19 1    
    38   18   22 1    
    39   18   98 1    
    40   19   20 am   BACKBONE|DICT|INTERRES
    41   19   21 2    
    42   20   99 1    
    43   20  100 1    
    44   22   23 am   BACKBONE|DICT|INTERRES
    45   22  101 1    
    46   23   24 2    
    47   23   25 1    
    48   25   26 1    
    49   25   27 1    
    50   25  102 1    
    51   26  103 1    
    52   26  104 1    
    53   26  105 1    
    54   27   28 am   BACKBONE|DICT|INTERRES
    55   27  106 1    
    56   28   29 2    
    57   28   30 1    
    58   30   31 1    
    59   30   32 1    
    60   30  107 1    
    61   31  108 1    
    62   31  109 1    
    63   31  110 1    
    64   32   33 am   BACKBONE|DICT|INTERRES
    65   32  111 1    
    66   33   34 2    
    67   33   35 1    
    68   35   36 1    
    69   35   37 1    
    70   35  112 1    
    71   36  113 1    
    72   36  114 1    
    73   36  115 1    
    74   37   38 am   BACKBONE|DICT|INTERRES
    75   37  116 1    
    76   38   39 2    
    77   38   40 1    
    78   40   41 1    
    79   40   42 1    
    80   40  117 1    
    81   41  118 1    
    82   41  119 1    
    83   41  120 1    
    84   42   43 am   BACKBONE|DICT|INTERRES
    85   42  121 1    
    86   43   44 2    
    87   43   45 1    
    88   45   46 1    
    89   45   47 1    
    90   45  122 1    
    91   46  123 1    
    92   46  124 1    
    93   46  125 1    
    94   47   48 am   BACKBONE|DICT|INTERRES
    95   47  126 1    
    96   48   49 2    
    97   48   50 1    
    98   50   51 1    
    99   50   52 1    
   100   50  127 1    
   101   51  128 1    
   102   51  129 1    
   103   51  130 1    
   104   52   53 am   BACKBONE|DICT|INTERRES
   105   52  131 1    
   106   53   54 2    
   107   53   55 1    
   108   55   56 1    
   109   55   59 1    
   110   55  132 1    
   111   56   57 1    
   112   56  133 1    
   113   56  134 1    
   114   57   58 1    
   115   58  135 1    
   116   58  136 1    
   117   59   60 am   BACKBONE|DICT|INTERRES
   118   59  137 1    
   119   60   61 2    
   120   60   62 1    
   121   62   63 1    
   122   62   64 1    
   123   62  138 1    
   124   63  139 1    
   125   63  140 1    
   126   63  141 1    
   127   64   65 am   BACKBONE|DICT|INTERRES
   128   64  142 1    
   129   65   66 2    
   130   65   67 1    
   131   67   68 1    
   132   67   69 1    
   133   67  143 1    
   134   68  144 1    
   135   68  145 1    
   136   68  146 1    
   137   69   70 am   BACKBONE|DICT|INTERRES
   138   69  147 1    
   139   70   71 2    
   140   70   72 1    
   141   72   73 1    
   142   72   74 1    
   143   72  148 1    
   144   73  149 1    
   145   73  150 1    
   146   73  151 1    
   147   74   75 am   BACKBONE|DICT|INTERRES
   148   74  152 1    
   149   75   76 2    
   150   75   77 1    
   151   77   78 1    
   152   77   79 1    
   153   77  153 1    
   154   78  154 1    
   155   78  155 1    
   156   78  156 1    
   157   79   80 am   BACKBONE|DICT|INTERRES
   158   79  157 1    
   159   80   81 2    
@<TRIPOS>SUBSTRUCTURE
     1 UNK         1 GROUP             0       ****    0 ROOT    
