@<TRIPOS>MOLECULE
3R207
157   159    1
SMALL
USER_CHARGES


@<TRIPOS>ATOM
      1 CA        -44.3041  -29.5021    7.1289 C.3       0 UNK        -0.1975 
      2 C         -45.2683  -29.3703    5.9594 C.2       0 UNK         0.4852 
      3 O         -44.8459  -29.0238    4.8559 O.2       0 UNK        -0.5216 
      4 N         -46.5582  -29.6507    6.1921 N.am      1 UNK        -0.4461 
      5 CA        -47.6358  -29.5738    5.1961 C.3       1 UNK         0.0864 
      6 C6        -48.9167  -30.3002    5.6768 C.3       14 UNK        -0.0898 
      7 S7        -49.5310  -29.7180    7.2955 S.3       14 UNK        -0.2598 
      8 C8        -51.1987  -29.1446    6.8513 C.3       14 UNK         0.0286 
      9 C9        -51.9215  -28.5310    8.0424 C.ar      14 UNK        -0.0844 
     10 C10       -52.3501  -27.2000    7.9979 C.ar      14 UNK        -0.0881 
     11 C11       -53.0460  -26.6410    9.0748 C.ar      14 UNK        -0.0643 
     12 C12       -53.2930  -27.4197   10.2082 C.ar      14 UNK        -0.0930 
     13 C13       -52.8611  -28.7457   10.2699 C.ar      14 UNK        -0.0827 
     14 C14       -52.1865  -29.3013    9.1801 C.ar      14 UNK        -0.1249 
     15 C15       -53.1194  -29.5614   11.5244 C.3       14 UNK         0.0141 
     16 S16       -54.8548  -30.0955   11.6145 S.3       14 UNK        -0.2313 
     17 C17       -54.9451  -30.6264   13.3549 C.3       14 UNK        -0.0915 
     18 CA        -56.3835  -30.5377   13.9242 C.3       13 UNK         0.0968 
     19 C         -56.4486  -31.1827   15.3362 C.2       13 UNK         0.5732 
     20 N         -56.6459  -32.4919   15.4108 N.am      13 UNK        -0.7310 
     21 O         -56.2835  -30.5179   16.3580 O.2       13 UNK        -0.5035 
     22 N         -56.9015  -29.1592   13.9189 N.am      13 UNK        -0.4233 
     23 C         -58.1940  -28.8511   14.1057 C.2       13 UNK         0.4989 
     24 O         -59.0858  -29.6986   14.1787 O.2       13 UNK        -0.4996 
     25 CA        -58.5877  -27.3684   14.2592 C.3       12 UNK         0.0216 
     26 CB        -59.0273  -27.0805   15.7053 C.3       12 UNK        -0.1964 
     27 N         -57.5285  -26.4270   13.8984 N.am      12 UNK        -0.4276 
     28 C         -57.1699  -26.1035   12.6496 C.2       12 UNK         0.5020 
     29 O         -57.7363  -26.5297   11.6428 O.2       12 UNK        -0.5489 
     30 CA        -55.9743  -25.1419   12.4969 C.3       11 UNK         0.0294 
     31 CB        -56.4627  -23.7226   12.1658 C.3       11 UNK        -0.2019 
     32 N         -55.0823  -25.0846   13.6646 N.am      11 UNK        -0.4493 
     33 C         -54.3786  -26.1191   14.1417 C.2       11 UNK         0.4932 
     34 O         -54.4361  -27.2600   13.6793 O.2       11 UNK        -0.5029 
     35 CA        -53.5185  -25.8595   15.3795 C.3       10 UNK         0.0280 
     36 CB        -54.3366  -26.0734   16.6667 C.3       10 UNK        -0.1976 
     37 N         -52.3978  -26.7891   15.3286 N.am      10 UNK        -0.4242 
     38 C         -51.2232  -26.6477   15.9497 C.2       10 UNK         0.5072 
     39 O         -50.9907  -25.7502   16.7622 O.2       10 UNK        -0.5224 
     40 CA        -50.1266  -27.6821   15.6223 C.3       9 UNK         0.0343 
     41 CB        -50.5311  -28.7128   14.5452 C.3       9 UNK        -0.2003 
     42 N         -48.9198  -26.9891   15.1751 N.am      9 UNK        -0.4272 
     43 C         -47.9214  -26.5731   15.9652 C.2       9 UNK         0.4988 
     44 O         -47.8391  -26.8262   17.1683 O.2       9 UNK        -0.5108 
     45 CA        -46.8191  -25.7307   15.2985 C.3       8 UNK         0.0248 
     46 CB        -45.7959  -26.6349   14.5926 C.3       8 UNK        -0.2001 
     47 N         -47.3509  -24.7448   14.3520 N.am      8 UNK        -0.4140 
     48 C         -48.0640  -23.6649   14.7073 C.2       8 UNK         0.5028 
     49 O         -48.2855  -23.3448   15.8758 O.2       8 UNK        -0.5428 
     50 CA        -48.6184  -22.7792   13.5776 C.3       7 UNK         0.0264 
     51 CB        -47.5753  -21.7359   13.1457 C.3       7 UNK        -0.1988 
     52 N         -49.0600  -23.5384   12.4067 N.am      7 UNK        -0.4454 
     53 C         -50.1175  -24.3636   12.3804 C.2       7 UNK         0.5027 
     54 O         -50.8691  -24.5422   13.3380 O.2       7 UNK        -0.5083 
     55 CA        -50.3500  -25.1494   11.0704 C.3       6 UNK         0.0844 
     56 C56       -51.0700  -24.2838   10.0059 C.3       14 UNK        -0.0967 
     57 S57       -52.8608  -24.1522   10.3236 S.3       14 UNK        -0.2604 
     58 C58       -53.5486  -25.2044    9.0056 C.3       14 UNK         0.0134 
     59 N         -49.1079  -25.7302   10.5513 N.am      6 UNK        -0.4116 
     60 C         -48.3263  -26.5938   11.2160 C.2       5 UNK         0.5034 
     61 O         -48.6004  -27.0658   12.3181 O.2       5 UNK        -0.5045 
     62 CA        -46.9739  -26.9349   10.5747 C.3       5 UNK         0.0224 
     63 CB        -47.1112  -28.0936    9.5781 C.3       5 UNK        -0.1978 
     64 N         -46.3819  -25.7702    9.9129 N.am      5 UNK        -0.4737 
     65 C         -45.8442  -24.7320   10.5683 C.2       4 UNK         0.5027 
     66 O         -45.7404  -24.6801   11.7932 O.2       4 UNK        -0.5211 
     67 CA        -45.3915  -23.5331    9.7162 C.3       4 UNK         0.0297 
     68 CB        -43.9895  -23.7810    9.1379 C.3       4 UNK        -0.1993 
     69 N         -46.3255  -23.2236    8.6290 N.am      4 UNK        -0.4486 
     70 C         -47.5890  -22.8142    8.8121 C.2       3 UNK         0.4961 
     71 O         -48.0785  -22.5943    9.9184 O.2       3 UNK        -0.5105 
     72 CA        -48.4777  -22.6685    7.5628 C.3       3 UNK         0.0299 
     73 CB        -48.4123  -21.2292    7.0289 C.3       3 UNK        -0.1972 
     74 N         -48.1735  -23.6076    6.4762 N.am      3 UNK        -0.4305 
     75 C         -48.1382  -24.9440    6.5798 C.2       2 UNK         0.5006 
     76 O         -48.3289  -25.5542    7.6356 O.2       2 UNK        -0.5106 
     77 CA        -47.7988  -25.7148    5.2965 C.3       2 UNK         0.0296 
     78 CB        -46.4596  -25.2505    4.6858 C.3       2 UNK        -0.2002 
     79 N         -47.7220  -27.1434    5.5884 N.am      2 UNK        -0.4032 
     80 C         -47.9224  -28.1344    4.7107 C.2       1 UNK         0.5000 
     81 O         -48.2850  -27.9526    3.5464 O.2       1 UNK        -0.5238 
     82 H82       -43.9977  -28.5158    7.4761 H         1 UNK         0.0889 
     83 H83       -43.4122  -30.0472    6.8208 H         1 UNK         0.0889 
     84 H84       -44.7507  -30.0389    7.9656 H         1 UNK         0.0889 
     85 H85       -46.8506  -29.9420    7.1144 H         1 UNK         0.3028 
     86 H86       -47.2806  -30.1145    4.3158 H         1 UNK         0.0864 
     87 H87       -49.7043  -30.2277    4.9241 H         1 UNK         0.0720 
     88 H88       -48.7092  -31.3670    5.7733 H         1 UNK         0.0720 
     89 H89       -51.7822  -29.9857    6.4741 H         1 UNK         0.0814 
     90 H90       -51.1204  -28.4255    6.0342 H         1 UNK         0.0814 
     91 H91       -52.1539  -26.6020    7.1185 H         1 UNK         0.1469 
     92 H92       -53.8193  -26.9955   11.0506 H         1 UNK         0.1381 
     93 H93       -51.8571  -30.3308    9.2179 H         1 UNK         0.1206 
     94 H94       -52.4692  -30.4366   11.5612 H         1 UNK         0.0813 
     95 H95       -52.8705  -28.9555   12.3954 H         1 UNK         0.0813 
     96 H96       -54.5718  -31.6512   13.4027 H         1 UNK         0.0638 
     97 H97       -54.2658  -30.0228   13.9596 H         1 UNK         0.0638 
     98 H98       -57.0314  -31.1254   13.2704 H         1 UNK         0.0568 
     99 H99       -56.6768  -32.9308   16.3177 H         1 UNK         0.3450 
    100 H100      -56.7713  -33.0494   14.5802 H         1 UNK         0.3450 
    101 H101      -56.2075  -28.4240   13.8554 H         1 UNK         0.2987 
    102 H102      -59.4423  -27.1926   13.6023 H         1 UNK         0.0766 
    103 H103      -59.3729  -26.0528   15.8195 H         1 UNK         0.0798 
    104 H104      -58.2149  -27.2447   16.4147 H         1 UNK         0.0798 
    105 H105      -59.8523  -27.7306   16.0007 H         1 UNK         0.0798 
    106 H106      -57.0035  -26.0192   14.6576 H         1 UNK         0.3198 
    107 H107      -55.3882  -25.4992   11.6498 H         1 UNK         0.0843 
    108 H108      -57.0359  -23.2896   12.9864 H         1 UNK         0.0831 
    109 H109      -57.1066  -23.7274   11.2851 H         1 UNK         0.0831 
    110 H110      -55.6273  -23.0569   11.9472 H         1 UNK         0.0831 
    111 H111      -54.9811  -24.1836   14.1108 H         1 UNK         0.3133 
    112 H112      -53.1381  -24.8365   15.3405 H         1 UNK         0.0566 
    113 H113      -53.7316  -25.8985   17.5565 H         1 UNK         0.0814 
    114 H114      -55.1826  -25.3869   16.7139 H         1 UNK         0.0814 
    115 H115      -54.7330  -27.0882   16.7272 H         1 UNK         0.0814 
    116 H116      -52.5236  -27.5363   14.6575 H         1 UNK         0.3091 
    117 H117      -49.9163  -28.2286   16.5438 H         1 UNK         0.0702 
    118 H118      -49.7198  -29.4166   14.3580 H         1 UNK         0.0785 
    119 H119      -51.3942  -29.3022   14.8578 H         1 UNK         0.0785 
    120 H120      -50.7709  -28.2355   13.5938 H         1 UNK         0.0785 
    121 H121      -48.8754  -26.7690   14.1834 H         1 UNK         0.2998 
    122 H122      -46.2961  -25.1852   16.0869 H         1 UNK         0.0697 
    123 H123      -46.2558  -27.2224   13.7981 H         1 UNK         0.0825 
    124 H124      -45.3467  -27.3365   15.2966 H         1 UNK         0.0825 
    125 H125      -44.9858  -26.0521   14.1537 H         1 UNK         0.0825 
    126 H126      -47.1379  -24.8869   13.3709 H         1 UNK         0.3029 
    127 H127      -49.4865  -22.2484   13.9744 H         1 UNK         0.0897 
    128 H128      -46.6909  -22.2048   12.7127 H         1 UNK         0.0792 
    129 H129      -47.2457  -21.1372   13.9958 H         1 UNK         0.0792 
    130 H130      -47.9851  -21.0495   12.4043 H         1 UNK         0.0792 
    131 H131      -48.5440  -23.3818   11.5431 H         1 UNK         0.3086 
    132 H132      -50.9911  -25.9995   11.3139 H         1 UNK         0.0583 
    133 H133      -50.6527  -23.2769    9.9596 H         1 UNK         0.1020 
    134 H134      -50.9218  -24.7076    9.0113 H         1 UNK         0.1020 
    135 H135      -54.6361  -25.2061    9.0899 H         1 UNK         0.0694 
    136 H136      -53.3164  -24.7551    8.0388 H         1 UNK         0.0694 
    137 H137      -48.8126  -25.4397    9.6258 H         1 UNK         0.2989 
    138 H138      -46.2996  -27.2556   11.3717 H         1 UNK         0.1055 
    139 H139      -47.5140  -28.9818   10.0673 H         1 UNK         0.0806 
    140 H140      -46.1450  -28.3643    9.1555 H         1 UNK         0.0806 
    141 H141      -47.7841  -27.8437    8.7594 H         1 UNK         0.0806 
    142 H142      -46.5155  -25.6970    8.9133 H         1 UNK         0.3061 
    143 H143      -45.3416  -22.6618   10.3730 H         1 UNK         0.0734 
    144 H144      -43.6203  -22.9061    8.6024 H         1 UNK         0.0832 
    145 H145      -43.2742  -23.9970    9.9329 H         1 UNK         0.0832 
    146 H146      -43.9766  -24.6275    8.4501 H         1 UNK         0.0832 
    147 H147      -46.0008  -23.3696    7.6846 H         1 UNK         0.3156 
    148 H148      -49.5054  -22.8643    7.8714 H         1 UNK         0.0589 
    149 H149      -47.4169  -20.9790    6.6597 H         1 UNK         0.0808 
    150 H150      -49.1223  -21.0730    6.2165 H         1 UNK         0.0808 
    151 H151      -48.6588  -20.5109    7.8124 H         1 UNK         0.0808 
    152 H152      -48.0034  -23.1957    5.5699 H         1 UNK         0.3098 
    153 H153      -48.6078  -25.5361    4.5853 H         1 UNK         0.0720 
    154 H154      -46.2135  -25.8230    3.7911 H         1 UNK         0.0791 
    155 H155      -45.6345  -25.3705    5.3893 H         1 UNK         0.0791 
    156 H156      -46.4903  -24.2022    4.3879 H         1 UNK         0.0791 
    157 H157      -47.5273  -27.3716    6.5536 H         1 UNK         0.3028 
@<TRIPOS>BOND
     1    1    2 1    
     2    1   82 1    
     3    1   83 1    
     4    1   84 1    
     5    2    3 2    
     6    2    4 am   BACKBONE|DICT|INTERRES
     7    4    5 1    
     8    4   85 1    
     9    5    6 1    
    10    5   80 1    
    11    5   86 1    
    12    6    7 1    
    13    6   87 1    
    14    6   88 1    
    15    7    8 1    
    16    8    9 1    
    17    8   89 1    
    18    8   90 1    
    19    9   10 ar   
    20    9   14 ar   
    21   10   11 ar   
    22   10   91 1    
    23   11   12 ar   
    24   11   58 1    
    25   12   13 ar   
    26   12   92 1    
    27   13   14 ar   
    28   13   15 1    
    29   14   93 1    
    30   15   16 1    
    31   15   94 1    
    32   15   95 1    
    33   16   17 1    
    34   17   18 1    
    35   17   96 1    
    36   17   97 1    
    37   18   19 1    
    38   18   22 1    
    39   18   98 1    
    40   19   20 am   BACKBONE|DICT|INTERRES
    41   19   21 2    
    42   20   99 1    
    43   20  100 1    
    44   22   23 am   BACKBONE|DICT|INTERRES
    45   22  101 1    
    46   23   24 2    
    47   23   25 1    
    48   25   26 1    
    49   25   27 1    
    50   25  102 1    
    51   26  103 1    
    52   26  104 1    
    53   26  105 1    
    54   27   28 am   BACKBONE|DICT|INTERRES
    55   27  106 1    
    56   28   29 2    
    57   28   30 1    
    58   30   31 1    
    59   30   32 1    
    60   30  107 1    
    61   31  108 1    
    62   31  109 1    
    63   31  110 1    
    64   32   33 am   BACKBONE|DICT|INTERRES
    65   32  111 1    
    66   33   34 2    
    67   33   35 1    
    68   35   36 1    
    69   35   37 1    
    70   35  112 1    
    71   36  113 1    
    72   36  114 1    
    73   36  115 1    
    74   37   38 am   BACKBONE|DICT|INTERRES
    75   37  116 1    
    76   38   39 2    
    77   38   40 1    
    78   40   41 1    
    79   40   42 1    
    80   40  117 1    
    81   41  118 1    
    82   41  119 1    
    83   41  120 1    
    84   42   43 am   BACKBONE|DICT|INTERRES
    85   42  121 1    
    86   43   44 2    
    87   43   45 1    
    88   45   46 1    
    89   45   47 1    
    90   45  122 1    
    91   46  123 1    
    92   46  124 1    
    93   46  125 1    
    94   47   48 am   BACKBONE|DICT|INTERRES
    95   47  126 1    
    96   48   49 2    
    97   48   50 1    
    98   50   51 1    
    99   50   52 1    
   100   50  127 1    
   101   51  128 1    
   102   51  129 1    
   103   51  130 1    
   104   52   53 am   BACKBONE|DICT|INTERRES
   105   52  131 1    
   106   53   54 2    
   107   53   55 1    
   108   55   56 1    
   109   55   59 1    
   110   55  132 1    
   111   56   57 1    
   112   56  133 1    
   113   56  134 1    
   114   57   58 1    
   115   58  135 1    
   116   58  136 1    
   117   59   60 am   BACKBONE|DICT|INTERRES
   118   59  137 1    
   119   60   61 2    
   120   60   62 1    
   121   62   63 1    
   122   62   64 1    
   123   62  138 1    
   124   63  139 1    
   125   63  140 1    
   126   63  141 1    
   127   64   65 am   BACKBONE|DICT|INTERRES
   128   64  142 1    
   129   65   66 2    
   130   65   67 1    
   131   67   68 1    
   132   67   69 1    
   133   67  143 1    
   134   68  144 1    
   135   68  145 1    
   136   68  146 1    
   137   69   70 am   BACKBONE|DICT|INTERRES
   138   69  147 1    
   139   70   71 2    
   140   70   72 1    
   141   72   73 1    
   142   72   74 1    
   143   72  148 1    
   144   73  149 1    
   145   73  150 1    
   146   73  151 1    
   147   74   75 am   BACKBONE|DICT|INTERRES
   148   74  152 1    
   149   75   76 2    
   150   75   77 1    
   151   77   78 1    
   152   77   79 1    
   153   77  153 1    
   154   78  154 1    
   155   78  155 1    
   156   78  156 1    
   157   79   80 am   BACKBONE|DICT|INTERRES
   158   79  157 1    
   159   80   81 2    
@<TRIPOS>SUBSTRUCTURE
     1 UNK         1 GROUP             0       ****    0 ROOT    
