@<TRIPOS>MOLECULE
3R207
157   159    1
SMALL
USER_CHARGES


@<TRIPOS>ATOM
      1 CA        -46.9588  -31.0163    3.2777 C.3       0 UNK        -0.1975 
      2 C         -47.5994  -30.0032    4.2146 C.2       0 UNK         0.4852 
      3 O         -46.9550  -29.5667    5.1696 O.2       0 UNK        -0.5216 
      4 N         -48.8547  -29.6205    3.9369 N.am      1 UNK        -0.4461 
      5 CA        -49.7144  -28.6860    4.6849 C.3       1 UNK         0.0864 
      6 C6        -49.9716  -29.0932    6.1595 C.3       14 UNK        -0.0898 
      7 S7        -50.8017  -30.7116    6.3101 S.3       14 UNK        -0.2598 
      8 C8        -52.4728  -30.2327    6.8643 C.3       14 UNK         0.0286 
      9 C9        -52.4524  -29.5065    8.2036 C.ar      14 UNK        -0.0844 
     10 C10       -52.8686  -28.1747    8.2918 C.ar      14 UNK        -0.0881 
     11 C11       -52.8205  -27.4927    9.5110 C.ar      14 UNK        -0.0643 
     12 C12       -52.3566  -28.1579   10.6512 C.ar      14 UNK        -0.0930 
     13 C13       -51.9490  -29.4929   10.5782 C.ar      14 UNK        -0.0827 
     14 C14       -52.0037  -30.1621    9.3527 C.ar      14 UNK        -0.1249 
     15 C15       -51.4183  -30.2105   11.8119 C.3       14 UNK         0.0141 
     16 S16       -52.6934  -30.4943   13.0836 S.3       14 UNK        -0.2313 
     17 C17       -53.9552  -31.4750   12.1972 C.3       14 UNK        -0.0915 
     18 CA        -55.3908  -30.8939   12.3183 C.3       13 UNK         0.0968 
     19 C         -56.0236  -31.1760   13.7120 C.2       13 UNK         0.5732 
     20 N         -56.4313  -32.4129   13.9641 N.am      13 UNK        -0.7310 
     21 O         -56.1305  -30.3019   14.5708 O.2       13 UNK        -0.5035 
     22 N         -55.4379  -29.4752   11.9388 N.am      13 UNK        -0.4233 
     23 C         -56.5552  -28.7978   11.6588 C.2       13 UNK         0.4989 
     24 O         -57.6733  -29.3115   11.5827 O.2       13 UNK        -0.4996 
     25 CA        -56.3949  -27.2823   11.4699 C.3       12 UNK         0.0216 
     26 CB        -57.5194  -26.6708   10.6139 C.3       12 UNK        -0.1964 
     27 N         -56.3740  -26.6275   12.7776 N.am      12 UNK        -0.4276 
     28 C         -55.2774  -26.4500   13.5226 C.2       12 UNK         0.5020 
     29 O         -54.1381  -26.7499   13.1563 O.2       12 UNK        -0.5489 
     30 CA        -55.4909  -25.8578   14.9201 C.3       11 UNK         0.0294 
     31 CB        -55.9670  -26.9470   15.9007 C.3       11 UNK        -0.2019 
     32 N         -54.2245  -25.2929   15.3729 N.am      11 UNK        -0.4493 
     33 C         -54.0461  -24.4402   16.3894 C.2       11 UNK         0.4932 
     34 O         -54.9707  -23.9898   17.0683 O.2       11 UNK        -0.5029 
     35 CA        -52.5929  -24.0127   16.6897 C.3       10 UNK         0.0280 
     36 CB        -52.3865  -23.5357   18.1431 C.3       10 UNK        -0.1976 
     37 N         -51.6096  -25.0374   16.3165 N.am      10 UNK        -0.4242 
     38 C         -51.4828  -26.2696   16.8323 C.2       10 UNK         0.5072 
     39 O         -52.1178  -26.6856   17.8023 O.2       10 UNK        -0.5224 
     40 CA        -50.5105  -27.2215   16.1188 C.3       9 UNK         0.0343 
     41 CB        -51.2377  -27.9572   14.9859 C.3       9 UNK        -0.2003 
     42 N         -49.3225  -26.5592   15.5770 N.am      9 UNK        -0.4272 
     43 C         -48.3048  -26.1134   16.3267 C.2       9 UNK         0.4988 
     44 O         -48.2657  -26.2024   17.5547 O.2       9 UNK        -0.5108 
     45 CA        -47.1230  -25.4694   15.5832 C.3       8 UNK         0.0248 
     46 CB        -46.2313  -26.5459   14.9432 C.3       8 UNK        -0.2001 
     47 N         -47.5498  -24.5074   14.5655 N.am      8 UNK        -0.4140 
     48 C         -48.1418  -23.3348   14.8373 C.2       8 UNK         0.5028 
     49 O         -48.3395  -22.9122   15.9770 O.2       8 UNK        -0.5428 
     50 CA        -48.6108  -22.4934   13.6384 C.3       7 UNK         0.0264 
     51 CB        -47.4454  -21.6766   13.0583 C.3       7 UNK        -0.1988 
     52 N         -49.2249  -23.2940   12.5774 N.am      7 UNK        -0.4454 
     53 C         -50.3438  -24.0200   12.7157 C.2       7 UNK         0.5027 
     54 O         -51.0029  -24.0728   13.7528 O.2       7 UNK        -0.5083 
     55 CA        -50.7794  -24.8642   11.5064 C.3       6 UNK         0.0844 
     56 C56       -51.5427  -24.0015   10.4724 C.3       14 UNK        -0.0967 
     57 S57       -51.9996  -24.9096    8.9570 S.3       14 UNK        -0.2604 
     58 C58       -53.2792  -26.0428    9.5808 C.3       14 UNK         0.0134 
     59 N         -49.6504  -25.5878   10.9240 N.am      6 UNK        -0.4116 
     60 C         -48.9453  -26.5441   11.5414 C.2       5 UNK         0.5034 
     61 O         -49.1711  -26.9479   12.6819 O.2       5 UNK        -0.5045 
     62 CA        -47.7440  -27.0981   10.7643 C.3       5 UNK         0.0224 
     63 CB        -48.2040  -28.1357    9.7258 C.3       5 UNK        -0.1978 
     64 N         -46.9890  -26.0245   10.1089 N.am      5 UNK        -0.4737 
     65 C         -46.2877  -25.0930   10.7759 C.2       4 UNK         0.5027 
     66 O         -46.1661  -25.0807   12.0002 O.2       4 UNK        -0.5211 
     67 CA        -45.6523  -23.9566    9.9544 C.3       4 UNK         0.0297 
     68 CB        -44.2548  -24.3658    9.4642 C.3       4 UNK        -0.1993 
     69 N         -46.4675  -23.5409    8.8118 N.am      4 UNK        -0.4486 
     70 C         -47.7142  -23.0543    8.8900 C.2       3 UNK         0.4961 
     71 O         -48.2863  -22.8140    9.9522 O.2       3 UNK        -0.5105 
     72 CA        -48.4728  -22.8389    7.5671 C.3       3 UNK         0.0299 
     73 CB        -48.4465  -21.3539    7.1733 C.3       3 UNK        -0.1972 
     74 N         -47.9900  -23.6508    6.4412 N.am      3 UNK        -0.4305 
     75 C         -47.9450  -24.9904    6.4169 C.2       2 UNK         0.5006 
     76 O         -48.2418  -25.7049    7.3779 O.2       2 UNK        -0.5106 
     77 CA        -47.4087  -25.6310    5.1265 C.3       2 UNK         0.0296 
     78 CB        -45.8767  -25.7480    5.1863 C.3       2 UNK        -0.2002 
     79 N         -47.9768  -26.9630    4.9313 N.am      2 UNK        -0.4032 
     80 C         -49.2500  -27.2170    4.6087 C.2       1 UNK         0.5000 
     81 O         -50.0536  -26.3464    4.2675 O.2       1 UNK        -0.5238 
     82 H82       -47.6346  -31.3185    2.4779 H         1 UNK         0.0889 
     83 H83       -46.6708  -31.9085    3.8329 H         1 UNK         0.0889 
     84 H84       -46.0631  -30.5931    2.8238 H         1 UNK         0.0889 
     85 H85       -49.2963  -30.0138    3.1173 H         1 UNK         0.3028 
     86 H86       -50.6782  -28.7162    4.1735 H         1 UNK         0.0864 
     87 H87       -49.0385  -29.1384    6.7228 H         1 UNK         0.0720 
     88 H88       -50.5711  -28.3314    6.6595 H         1 UNK         0.0720 
     89 H89       -53.0860  -31.1302    6.9559 H         1 UNK         0.0814 
     90 H90       -52.9404  -29.6188    6.0929 H         1 UNK         0.0814 
     91 H91       -53.2165  -27.6579    7.4077 H         1 UNK         0.1469 
     92 H92       -52.3127  -27.6461   11.6012 H         1 UNK         0.1381 
     93 H93       -51.6792  -31.1915    9.2843 H         1 UNK         0.1206 
     94 H94       -50.9736  -31.1693   11.5415 H         1 UNK         0.0813 
     95 H95       -50.6139  -29.6150   12.2460 H         1 UNK         0.0813 
     96 H96       -53.9152  -32.5013   12.5658 H         1 UNK         0.0638 
     97 H97       -53.6886  -31.5422   11.1428 H         1 UNK         0.0638 
     98 H98       -56.0098  -31.4261   11.5933 H         1 UNK         0.0568 
     99 H99       -56.8356  -32.6189   14.8640 H         1 UNK         0.3450 
    100 H100      -56.3452  -33.1432   13.2746 H         1 UNK         0.3450 
    101 H101      -54.5728  -28.9645   12.0578 H         1 UNK         0.2987 
    102 H102      -55.4531  -27.1090   10.9502 H         1 UNK         0.0766 
    103 H103      -57.3498  -25.6080   10.4407 H         1 UNK         0.0798 
    104 H104      -58.4977  -26.7814   11.0834 H         1 UNK         0.0798 
    105 H105      -57.5698  -27.1535    9.6369 H         1 UNK         0.0798 
    106 H106      -57.2733  -26.3924   13.1733 H         1 UNK         0.3198 
    107 H107      -56.2338  -25.0599   14.8564 H         1 UNK         0.0843 
    108 H108      -55.2317  -27.7479   15.9942 H         1 UNK         0.0831 
    109 H109      -56.8993  -27.4025   15.5647 H         1 UNK         0.0831 
    110 H110      -56.1474  -26.5414   16.8961 H         1 UNK         0.0831 
    111 H111      -53.4293  -25.5901   14.8188 H         1 UNK         0.3133 
    112 H112      -52.3925  -23.1615   16.0378 H         1 UNK         0.0566 
    113 H113      -51.3506  -23.2465   18.3211 H         1 UNK         0.0814 
    114 H114      -53.0070  -22.6654   18.3599 H         1 UNK         0.0814 
    115 H115      -52.6495  -24.3080   18.8662 H         1 UNK         0.0814 
    116 H116      -51.0805  -24.8150   15.4758 H         1 UNK         0.3091 
    117 H117      -50.1834  -27.9660   16.8479 H         1 UNK         0.0702 
    118 H118      -50.5993  -28.7220   14.5447 H         1 UNK         0.0785 
    119 H119      -51.5442  -27.2781   14.1890 H         1 UNK         0.0785 
    120 H120      -52.1367  -28.4549   15.3526 H         1 UNK         0.0785 
    121 H121      -49.2556  -26.5001   14.5638 H         1 UNK         0.2998 
    122 H122      -46.5224  -24.9310   16.3196 H         1 UNK         0.0697 
    123 H123      -46.7564  -27.0940   14.1600 H         1 UNK         0.0825 
    124 H124      -45.9000  -27.2726   15.6861 H         1 UNK         0.0825 
    125 H125      -45.3380  -26.1063   14.4992 H         1 UNK         0.0825 
    126 H126      -47.3584  -24.7505   13.5980 H         1 UNK         0.3029 
    127 H127      -49.3685  -21.7961   14.0024 H         1 UNK         0.0897 
    128 H128      -47.7788  -21.0302   12.2461 H         1 UNK         0.0792 
    129 H129      -46.9994  -21.0368   13.8211 H         1 UNK         0.0792 
    130 H130      -46.6562  -22.3210   12.6702 H         1 UNK         0.0792 
    131 H131      -48.7780  -23.2598   11.6621 H         1 UNK         0.3086 
    132 H132      -51.4727  -25.6116   11.8919 H         1 UNK         0.0583 
    133 H133      -52.4492  -23.5865   10.9179 H         1 UNK         0.1020 
    134 H134      -50.9417  -23.1429   10.1675 H         1 UNK         0.1020 
    135 H135      -53.5544  -25.7764   10.6019 H         1 UNK         0.0694 
    136 H136      -54.1824  -25.9165    8.9821 H         1 UNK         0.0694 
    137 H137      -49.3867  -25.3239    9.9854 H         1 UNK         0.2989 
    138 H138      -47.0829  -27.5938   11.4786 H         1 UNK         0.1055 
    139 H139      -48.7074  -28.9733   10.2107 H         1 UNK         0.0806 
    140 H140      -47.3616  -28.5422    9.1661 H         1 UNK         0.0806 
    141 H141      -48.9090  -27.7120    9.0092 H         1 UNK         0.0806 
    142 H142      -47.1104  -25.9295    9.1057 H         1 UNK         0.3061 
    143 H143      -45.5445  -23.0929   10.6134 H         1 UNK         0.0734 
    144 H144      -43.7536  -23.5414    8.9567 H         1 UNK         0.0832 
    145 H145      -43.6206  -24.6613   10.3014 H         1 UNK         0.0832 
    146 H146      -44.2981  -25.2103    8.7751 H         1 UNK         0.0832 
    147 H147      -46.0805  -23.6996    7.8936 H         1 UNK         0.3156 
    148 H148      -49.5113  -23.1245    7.7474 H         1 UNK         0.0589 
    149 H149      -47.4353  -21.0135    6.9465 H         1 UNK         0.0808 
    150 H150      -49.0713  -21.1620    6.3008 H         1 UNK         0.0808 
    151 H151      -48.8263  -20.7289    7.9832 H         1 UNK         0.0808 
    152 H152      -47.7056  -23.1446    5.6143 H         1 UNK         0.3098 
    153 H153      -47.6869  -25.0068    4.2746 H         1 UNK         0.0720 
    154 H154      -45.4785  -26.1954    4.2752 H         1 UNK         0.0791 
    155 H155      -45.5521  -26.3614    6.0283 H         1 UNK         0.0791 
    156 H156      -45.4096  -24.7684    5.2949 H         1 UNK         0.0791 
    157 H157      -47.4051  -27.7603    5.2010 H         1 UNK         0.3028 
@<TRIPOS>BOND
     1    1    2 1    
     2    1   82 1    
     3    1   83 1    
     4    1   84 1    
     5    2    3 2    
     6    2    4 am   BACKBONE|DICT|INTERRES
     7    4    5 1    
     8    4   85 1    
     9    5    6 1    
    10    5   80 1    
    11    5   86 1    
    12    6    7 1    
    13    6   87 1    
    14    6   88 1    
    15    7    8 1    
    16    8    9 1    
    17    8   89 1    
    18    8   90 1    
    19    9   10 ar   
    20    9   14 ar   
    21   10   11 ar   
    22   10   91 1    
    23   11   12 ar   
    24   11   58 1    
    25   12   13 ar   
    26   12   92 1    
    27   13   14 ar   
    28   13   15 1    
    29   14   93 1    
    30   15   16 1    
    31   15   94 1    
    32   15   95 1    
    33   16   17 1    
    34   17   18 1    
    35   17   96 1    
    36   17   97 1    
    37   18   19 1    
    38   18   22 1    
    39   18   98 1    
    40   19   20 am   BACKBONE|DICT|INTERRES
    41   19   21 2    
    42   20   99 1    
    43   20  100 1    
    44   22   23 am   BACKBONE|DICT|INTERRES
    45   22  101 1    
    46   23   24 2    
    47   23   25 1    
    48   25   26 1    
    49   25   27 1    
    50   25  102 1    
    51   26  103 1    
    52   26  104 1    
    53   26  105 1    
    54   27   28 am   BACKBONE|DICT|INTERRES
    55   27  106 1    
    56   28   29 2    
    57   28   30 1    
    58   30   31 1    
    59   30   32 1    
    60   30  107 1    
    61   31  108 1    
    62   31  109 1    
    63   31  110 1    
    64   32   33 am   BACKBONE|DICT|INTERRES
    65   32  111 1    
    66   33   34 2    
    67   33   35 1    
    68   35   36 1    
    69   35   37 1    
    70   35  112 1    
    71   36  113 1    
    72   36  114 1    
    73   36  115 1    
    74   37   38 am   BACKBONE|DICT|INTERRES
    75   37  116 1    
    76   38   39 2    
    77   38   40 1    
    78   40   41 1    
    79   40   42 1    
    80   40  117 1    
    81   41  118 1    
    82   41  119 1    
    83   41  120 1    
    84   42   43 am   BACKBONE|DICT|INTERRES
    85   42  121 1    
    86   43   44 2    
    87   43   45 1    
    88   45   46 1    
    89   45   47 1    
    90   45  122 1    
    91   46  123 1    
    92   46  124 1    
    93   46  125 1    
    94   47   48 am   BACKBONE|DICT|INTERRES
    95   47  126 1    
    96   48   49 2    
    97   48   50 1    
    98   50   51 1    
    99   50   52 1    
   100   50  127 1    
   101   51  128 1    
   102   51  129 1    
   103   51  130 1    
   104   52   53 am   BACKBONE|DICT|INTERRES
   105   52  131 1    
   106   53   54 2    
   107   53   55 1    
   108   55   56 1    
   109   55   59 1    
   110   55  132 1    
   111   56   57 1    
   112   56  133 1    
   113   56  134 1    
   114   57   58 1    
   115   58  135 1    
   116   58  136 1    
   117   59   60 am   BACKBONE|DICT|INTERRES
   118   59  137 1    
   119   60   61 2    
   120   60   62 1    
   121   62   63 1    
   122   62   64 1    
   123   62  138 1    
   124   63  139 1    
   125   63  140 1    
   126   63  141 1    
   127   64   65 am   BACKBONE|DICT|INTERRES
   128   64  142 1    
   129   65   66 2    
   130   65   67 1    
   131   67   68 1    
   132   67   69 1    
   133   67  143 1    
   134   68  144 1    
   135   68  145 1    
   136   68  146 1    
   137   69   70 am   BACKBONE|DICT|INTERRES
   138   69  147 1    
   139   70   71 2    
   140   70   72 1    
   141   72   73 1    
   142   72   74 1    
   143   72  148 1    
   144   73  149 1    
   145   73  150 1    
   146   73  151 1    
   147   74   75 am   BACKBONE|DICT|INTERRES
   148   74  152 1    
   149   75   76 2    
   150   75   77 1    
   151   77   78 1    
   152   77   79 1    
   153   77  153 1    
   154   78  154 1    
   155   78  155 1    
   156   78  156 1    
   157   79   80 am   BACKBONE|DICT|INTERRES
   158   79  157 1    
   159   80   81 2    
@<TRIPOS>SUBSTRUCTURE
     1 UNK         1 GROUP             0       ****    0 ROOT    
