@<TRIPOS>MOLECULE
3R207
157   159    1
SMALL
USER_CHARGES


@<TRIPOS>ATOM
      1 CA        -46.6036  -29.0220    5.7620 C.3       0 UNK        -0.1975 
      2 C         -47.2559  -27.6485    5.7579 C.2       0 UNK         0.4852 
      3 O         -46.5782  -26.6442    5.5310 O.2       0 UNK        -0.5216 
      4 N         -48.5714  -27.6132    6.0053 N.am      1 UNK        -0.4461 
      5 CA        -49.4444  -26.4330    5.9801 C.3       1 UNK         0.0864 
      6 C6        -50.8964  -26.7762    6.3949 C.3       14 UNK        -0.0898 
      7 S7        -51.6257  -28.1020    5.3721 S.3       14 UNK        -0.2598 
      8 C8        -52.8739  -28.8133    6.5065 C.3       14 UNK         0.0286 
      9 C9        -52.3387  -29.5351    7.7476 C.ar      14 UNK        -0.0844 
     10 C10       -50.9828  -29.8313    7.9338 C.ar      14 UNK        -0.0881 
     11 C11       -50.5326  -30.4460    9.1042 C.ar      14 UNK        -0.0643 
     12 C12       -51.4551  -30.8138   10.0865 C.ar      14 UNK        -0.0930 
     13 C13       -52.8181  -30.5647    9.8994 C.ar      14 UNK        -0.0827 
     14 C14       -53.2493  -29.9165    8.7379 C.ar      14 UNK        -0.1249 
     15 C15       -53.8289  -31.0061   10.9442 C.3       14 UNK         0.0141 
     16 S16       -53.9601  -29.7852   12.2787 S.3       14 UNK        -0.2313 
     17 C17       -55.3561  -30.4608   13.2368 C.3       14 UNK        -0.0915 
     18 CA        -56.6436  -29.6105   13.0792 C.3       13 UNK         0.0968 
     19 C         -57.8544  -30.3032   13.7729 C.2       13 UNK         0.5732 
     20 N         -58.4555  -29.7364   14.8134 N.am      13 UNK        -0.7310 
     21 O         -58.2628  -31.3819   13.3491 O.2       13 UNK        -0.5035 
     22 N         -56.4194  -28.2179   13.4933 N.am      13 UNK        -0.4233 
     23 C         -57.2013  -27.1813   13.1698 C.2       13 UNK         0.4989 
     24 O         -58.1491  -27.2613   12.3859 O.2       13 UNK        -0.4996 
     25 CA        -56.8739  -25.8338   13.8488 C.3       12 UNK         0.0216 
     26 CB        -58.0991  -24.8979   13.9209 C.3       12 UNK        -0.1964 
     27 N         -56.2593  -25.9685   15.1788 N.am      12 UNK        -0.4276 
     28 C         -56.7439  -26.6151   16.2495 C.2       12 UNK         0.5020 
     29 O         -57.8002  -27.2507   16.2435 O.2       12 UNK        -0.5489 
     30 CA        -55.8702  -26.5829   17.5213 C.3       11 UNK         0.0294 
     31 CB        -56.5682  -27.2320   18.7315 C.3       11 UNK        -0.2019 
     32 N         -54.5709  -27.2342   17.3194 N.am      11 UNK        -0.4493 
     33 C         -53.5486  -26.7181   16.6261 C.2       11 UNK         0.4932 
     34 O         -53.5979  -25.6183   16.0710 O.2       11 UNK        -0.5029 
     35 CA        -52.2981  -27.6040   16.4921 C.3       10 UNK         0.0280 
     36 CB        -52.5487  -28.7271   15.4754 C.3       10 UNK        -0.1976 
     37 N         -51.1393  -26.8278   16.0517 N.am      10 UNK        -0.4242 
     38 C         -50.4483  -25.9840   16.8299 C.2       10 UNK         0.5072 
     39 O         -50.6189  -25.8713   18.0454 O.2       10 UNK        -0.5224 
     40 CA        -49.3966  -25.1063   16.1315 C.3       9 UNK         0.0343 
     41 CB        -48.0971  -25.8934   15.8973 C.3       9 UNK        -0.2003 
     42 N         -49.8757  -24.5661   14.8581 N.am      9 UNK        -0.4272 
     43 C         -50.8473  -23.6507   14.7245 C.2       9 UNK         0.4988 
     44 O         -51.3988  -23.0920   15.6731 O.2       9 UNK        -0.5108 
     45 CA        -51.2662  -23.2803   13.2925 C.3       8 UNK         0.0248 
     46 CB        -50.3753  -22.1546   12.7403 C.3       8 UNK        -0.2001 
     47 N         -51.2093  -24.4345   12.3929 N.am      8 UNK        -0.4140 
     48 C         -52.2249  -25.2838   12.1787 C.2       8 UNK         0.5028 
     49 O         -53.3471  -25.1487   12.6666 O.2       8 UNK        -0.5428 
     50 CA        -51.9592  -26.4841   11.2495 C.3       7 UNK         0.0264 
     51 CB        -52.4850  -26.1960    9.8352 C.3       7 UNK        -0.1988 
     52 N         -50.5507  -26.8840   11.1719 N.am      7 UNK        -0.4454 
     53 C         -49.8646  -27.4242   12.1891 C.2       7 UNK         0.5027 
     54 O         -50.3499  -27.6470   13.2989 O.2       7 UNK        -0.5083 
     55 CA        -48.3590  -27.6722   11.9662 C.3       6 UNK         0.0844 
     56 C56       -48.0599  -29.0792   11.3847 C.3       14 UNK        -0.0967 
     57 S57       -48.1149  -29.1826    9.5594 S.3       14 UNK        -0.2604 
     58 C58       -49.0480  -30.7208    9.2791 C.3       14 UNK         0.0134 
     59 N         -47.7059  -26.5930   11.2172 N.am      6 UNK        -0.4116 
     60 C         -47.6464  -25.3085   11.5926 C.2       5 UNK         0.5034 
     61 O         -48.1722  -24.8843   12.6210 O.2       5 UNK        -0.5045 
     62 CA        -46.9377  -24.3199   10.6507 C.3       5 UNK         0.0224 
     63 CB        -46.1781  -23.2135   11.4119 C.3       5 UNK        -0.1978 
     64 N         -46.0870  -24.9639    9.6434 N.am      5 UNK        -0.4737 
     65 C         -44.9338  -25.6251    9.8240 C.2       4 UNK         0.5027 
     66 O         -44.3994  -25.8023   10.9181 O.2       4 UNK        -0.5211 
     67 CA        -44.2720  -26.2040    8.5612 C.3       4 UNK         0.0297 
     68 CB        -44.6514  -27.6824    8.3971 C.3       4 UNK        -0.1993 
     69 N         -44.6412  -25.4590    7.3520 N.am      4 UNK        -0.4486 
     70 C         -44.1126  -24.2719    7.0212 C.2       3 UNK         0.4961 
     71 O         -43.1710  -23.7475    7.6170 O.2       3 UNK        -0.5105 
     72 CA        -44.7753  -23.5242    5.8545 C.3       3 UNK         0.0299 
     73 CB        -44.3772  -24.1339    4.5001 C.3       3 UNK        -0.1972 
     74 N         -46.2346  -23.4943    5.9889 N.am      3 UNK        -0.4305 
     75 C         -46.8952  -22.7396    6.8825 C.2       2 UNK         0.5006 
     76 O         -46.3394  -21.9670    7.6631 O.2       2 UNK        -0.5106 
     77 CA        -48.4322  -22.8419    6.9215 C.3       2 UNK         0.0296 
     78 CB        -49.0677  -21.6157    6.2453 C.3       2 UNK        -0.2002 
     79 N         -48.9569  -24.0571    6.2959 N.am      2 UNK        -0.4032 
     80 C         -48.9072  -25.2766    6.8470 C.2       1 UNK         0.5000 
     81 O         -48.4648  -25.5052    7.9761 O.2       1 UNK        -0.5238 
     82 H82       -46.7197  -29.5017    6.7335 H         1 UNK         0.0889 
     83 H83       -45.5387  -28.9439    5.5451 H         1 UNK         0.0889 
     84 H84       -47.0555  -29.6611    5.0040 H         1 UNK         0.0889 
     85 H85       -49.0498  -28.4819    6.1827 H         1 UNK         0.3028 
     86 H86       -49.4613  -26.0954    4.9418 H         1 UNK         0.0864 
     87 H87       -51.5409  -25.8987    6.3123 H         1 UNK         0.0720 
     88 H88       -50.9197  -27.0747    7.4433 H         1 UNK         0.0720 
     89 H89       -53.4826  -29.5181    5.9385 H         1 UNK         0.0814 
     90 H90       -53.5451  -28.0121    6.8200 H         1 UNK         0.0814 
     91 H91       -50.2566  -29.5750    7.1803 H         1 UNK         0.1469 
     92 H92       -51.1172  -31.3004   10.9911 H         1 UNK         0.1381 
     93 H93       -54.3024  -29.7087    8.6037 H         1 UNK         0.1206 
     94 H94       -53.5380  -31.9713   11.3615 H         1 UNK         0.0813 
     95 H95       -54.8087  -31.1486   10.4853 H         1 UNK         0.0813 
     96 H96       -55.0585  -30.5086   14.2854 H         1 UNK         0.0638 
     97 H97       -55.5325  -31.4927   12.9273 H         1 UNK         0.0638 
     98 H98       -56.8900  -29.5917   12.0159 H         1 UNK         0.0568 
     99 H99       -58.1470  -28.8429   15.1860 H         1 UNK         0.3450 
    100 H100      -59.2386  -30.2059   15.2382 H         1 UNK         0.3450 
    101 H101      -55.6582  -28.0630   14.1352 H         1 UNK         0.2987 
    102 H102      -56.1254  -25.3539   13.2163 H         1 UNK         0.0766 
    103 H103      -57.8424  -23.9432   14.3798 H         1 UNK         0.0798 
    104 H104      -58.9104  -25.3412   14.4995 H         1 UNK         0.0798 
    105 H105      -58.4887  -24.6812   12.9255 H         1 UNK         0.0798 
    106 H106      -55.3330  -25.5563   15.2829 H         1 UNK         0.3198 
    107 H107      -55.6983  -25.5319   17.7650 H         1 UNK         0.0843 
    108 H108      -56.7619  -28.2928   18.5668 H         1 UNK         0.0831 
    109 H109      -57.5283  -26.7535   18.9304 H         1 UNK         0.0831 
    110 H110      -55.9678  -27.1356   19.6362 H         1 UNK         0.0831 
    111 H111      -54.4669  -28.1565   17.7185 H         1 UNK         0.3133 
    112 H112      -52.0766  -28.0488   17.4644 H         1 UNK         0.0566 
    113 H113      -51.6718  -29.3648   15.3616 H         1 UNK         0.0814 
    114 H114      -52.7898  -28.3189   14.4936 H         1 UNK         0.0814 
    115 H115      -53.3768  -29.3673   15.7803 H         1 UNK         0.0814 
    116 H116      -50.9184  -26.8727   15.0615 H         1 UNK         0.3091 
    117 H117      -49.1717  -24.2643   16.7896 H         1 UNK         0.0702 
    118 H118      -47.3285  -25.2647   15.4468 H         1 UNK         0.0785 
    119 H119      -48.2566  -26.7484   15.2397 H         1 UNK         0.0785 
    120 H120      -47.6967  -26.2739   16.8378 H         1 UNK         0.0785 
    121 H121      -49.3953  -24.8867   14.0217 H         1 UNK         0.2998 
    122 H122      -52.2912  -22.9052   13.3331 H         1 UNK         0.0697 
    123 H123      -49.3271  -22.4499   12.6914 H         1 UNK         0.0825 
    124 H124      -50.4329  -21.2687   13.3742 H         1 UNK         0.0825 
    125 H125      -50.6874  -21.8567   11.7392 H         1 UNK         0.0825 
    126 H126      -50.3091  -24.6449   11.9852 H         1 UNK         0.3029 
    127 H127      -52.5215  -27.3273   11.6538 H         1 UNK         0.0897 
    128 H128      -53.5253  -25.8684    9.8633 H         1 UNK         0.0792 
    129 H129      -52.4524  -27.0929    9.2194 H         1 UNK         0.0792 
    130 H130      -51.9080  -25.4163    9.3366 H         1 UNK         0.0792 
    131 H131      -50.0734  -26.7390   10.2929 H         1 UNK         0.3086 
    132 H132      -47.9124  -27.6507   12.9624 H         1 UNK         0.0583 
    133 H133      -47.0532  -29.3755   11.6839 H         1 UNK         0.1020 
    134 H134      -48.7190  -29.8286   11.8279 H         1 UNK         0.1020 
    135 H135      -48.6677  -31.1958    8.3735 H         1 UNK         0.0694 
    136 H136      -48.8667  -31.4296   10.0884 H         1 UNK         0.0694 
    137 H137      -47.2976  -26.8525   10.3307 H         1 UNK         0.2989 
    138 H138      -47.7377  -23.8331   10.0916 H         1 UNK         0.1055 
    139 H139      -46.8554  -22.6317   12.0380 H         1 UNK         0.0806 
    140 H140      -45.6996  -22.5178   10.7223 H         1 UNK         0.0806 
    141 H141      -45.4086  -23.6239   12.0659 H         1 UNK         0.0806 
    142 H142      -46.4763  -24.9610    8.7081 H         1 UNK         0.3061 
    143 H143      -43.1894  -26.1450    8.6943 H         1 UNK         0.0734 
    144 H144      -44.1779  -28.1201    7.5185 H         1 UNK         0.0832 
    145 H145      -44.3312  -28.2650    9.2620 H         1 UNK         0.0832 
    146 H146      -45.7292  -27.8096    8.3047 H         1 UNK         0.0832 
    147 H147      -45.3846  -25.8411    6.7700 H         1 UNK         0.3156 
    148 H148      -44.4129  -22.4938    5.8711 H         1 UNK         0.0589 
    149 H149      -44.7114  -25.1665    4.3990 H         1 UNK         0.0808 
    150 H150      -44.7964  -23.5639    3.6709 H         1 UNK         0.0808 
    151 H151      -43.2932  -24.1313    4.3780 H         1 UNK         0.0808 
    152 H152      -46.7558  -24.1372    5.4091 H         1 UNK         0.3098 
    153 H153      -48.7315  -22.8401    7.9718 H         1 UNK         0.0720 
    154 H154      -50.1546  -21.6344    6.3292 H         1 UNK         0.0791 
    155 H155      -48.8121  -21.5590    5.1864 H         1 UNK         0.0791 
    156 H156      -48.7255  -20.6910    6.7124 H         1 UNK         0.0791 
    157 H157      -49.3490  -23.9525    5.3707 H         1 UNK         0.3028 
@<TRIPOS>BOND
     1    1    2 1    
     2    1   82 1    
     3    1   83 1    
     4    1   84 1    
     5    2    3 2    
     6    2    4 am   BACKBONE|DICT|INTERRES
     7    4    5 1    
     8    4   85 1    
     9    5    6 1    
    10    5   80 1    
    11    5   86 1    
    12    6    7 1    
    13    6   87 1    
    14    6   88 1    
    15    7    8 1    
    16    8    9 1    
    17    8   89 1    
    18    8   90 1    
    19    9   10 ar   
    20    9   14 ar   
    21   10   11 ar   
    22   10   91 1    
    23   11   12 ar   
    24   11   58 1    
    25   12   13 ar   
    26   12   92 1    
    27   13   14 ar   
    28   13   15 1    
    29   14   93 1    
    30   15   16 1    
    31   15   94 1    
    32   15   95 1    
    33   16   17 1    
    34   17   18 1    
    35   17   96 1    
    36   17   97 1    
    37   18   19 1    
    38   18   22 1    
    39   18   98 1    
    40   19   20 am   BACKBONE|DICT|INTERRES
    41   19   21 2    
    42   20   99 1    
    43   20  100 1    
    44   22   23 am   BACKBONE|DICT|INTERRES
    45   22  101 1    
    46   23   24 2    
    47   23   25 1    
    48   25   26 1    
    49   25   27 1    
    50   25  102 1    
    51   26  103 1    
    52   26  104 1    
    53   26  105 1    
    54   27   28 am   BACKBONE|DICT|INTERRES
    55   27  106 1    
    56   28   29 2    
    57   28   30 1    
    58   30   31 1    
    59   30   32 1    
    60   30  107 1    
    61   31  108 1    
    62   31  109 1    
    63   31  110 1    
    64   32   33 am   BACKBONE|DICT|INTERRES
    65   32  111 1    
    66   33   34 2    
    67   33   35 1    
    68   35   36 1    
    69   35   37 1    
    70   35  112 1    
    71   36  113 1    
    72   36  114 1    
    73   36  115 1    
    74   37   38 am   BACKBONE|DICT|INTERRES
    75   37  116 1    
    76   38   39 2    
    77   38   40 1    
    78   40   41 1    
    79   40   42 1    
    80   40  117 1    
    81   41  118 1    
    82   41  119 1    
    83   41  120 1    
    84   42   43 am   BACKBONE|DICT|INTERRES
    85   42  121 1    
    86   43   44 2    
    87   43   45 1    
    88   45   46 1    
    89   45   47 1    
    90   45  122 1    
    91   46  123 1    
    92   46  124 1    
    93   46  125 1    
    94   47   48 am   BACKBONE|DICT|INTERRES
    95   47  126 1    
    96   48   49 2    
    97   48   50 1    
    98   50   51 1    
    99   50   52 1    
   100   50  127 1    
   101   51  128 1    
   102   51  129 1    
   103   51  130 1    
   104   52   53 am   BACKBONE|DICT|INTERRES
   105   52  131 1    
   106   53   54 2    
   107   53   55 1    
   108   55   56 1    
   109   55   59 1    
   110   55  132 1    
   111   56   57 1    
   112   56  133 1    
   113   56  134 1    
   114   57   58 1    
   115   58  135 1    
   116   58  136 1    
   117   59   60 am   BACKBONE|DICT|INTERRES
   118   59  137 1    
   119   60   61 2    
   120   60   62 1    
   121   62   63 1    
   122   62   64 1    
   123   62  138 1    
   124   63  139 1    
   125   63  140 1    
   126   63  141 1    
   127   64   65 am   BACKBONE|DICT|INTERRES
   128   64  142 1    
   129   65   66 2    
   130   65   67 1    
   131   67   68 1    
   132   67   69 1    
   133   67  143 1    
   134   68  144 1    
   135   68  145 1    
   136   68  146 1    
   137   69   70 am   BACKBONE|DICT|INTERRES
   138   69  147 1    
   139   70   71 2    
   140   70   72 1    
   141   72   73 1    
   142   72   74 1    
   143   72  148 1    
   144   73  149 1    
   145   73  150 1    
   146   73  151 1    
   147   74   75 am   BACKBONE|DICT|INTERRES
   148   74  152 1    
   149   75   76 2    
   150   75   77 1    
   151   77   78 1    
   152   77   79 1    
   153   77  153 1    
   154   78  154 1    
   155   78  155 1    
   156   78  156 1    
   157   79   80 am   BACKBONE|DICT|INTERRES
   158   79  157 1    
   159   80   81 2    
@<TRIPOS>SUBSTRUCTURE
     1 UNK         1 GROUP             0       ****    0 ROOT    
