@<TRIPOS>MOLECULE
3R207
157   159    1
SMALL
USER_CHARGES


@<TRIPOS>ATOM
      1 CA        -48.4381  -29.1946    3.8514 C.3       0 UNK        -0.1975 
      2 C         -49.7827  -29.2691    3.1326 C.2       0 UNK         0.4852 
      3 O         -49.8672  -28.8223    1.9898 O.2       0 UNK        -0.5216 
      4 N         -50.8583  -29.8191    3.7198 N.am      1 UNK        -0.4461 
      5 CA        -51.0144  -30.3740    5.0719 C.3       1 UNK         0.0864 
      6 C6        -50.2510  -31.7177    5.2844 C.3       14 UNK        -0.0898 
      7 S7        -51.3548  -33.0338    5.8994 S.3       14 UNK        -0.2598 
      8 C8        -50.7025  -33.3596    7.5689 C.3       14 UNK         0.0286 
      9 C9        -51.0221  -32.2470    8.5591 C.ar      14 UNK        -0.0844 
     10 C10       -49.9902  -31.5089    9.1477 C.ar      14 UNK        -0.0881 
     11 C11       -50.2714  -30.5223   10.0987 C.ar      14 UNK        -0.0643 
     12 C12       -51.6001  -30.2678   10.4496 C.ar      14 UNK        -0.0930 
     13 C13       -52.6411  -30.9901    9.8607 C.ar      14 UNK        -0.0827 
     14 C14       -52.3468  -31.9846    8.9233 C.ar      14 UNK        -0.1249 
     15 C15       -54.0802  -30.7037   10.2553 C.3       14 UNK         0.0141 
     16 S16       -54.9370  -29.7463    8.9686 S.3       14 UNK        -0.2313 
     17 C17       -56.3761  -29.1229    9.9024 C.3       14 UNK        -0.0915 
     18 CA        -56.4681  -27.5751    9.8841 C.3       13 UNK         0.0968 
     19 C         -57.7278  -27.0885   10.6513 C.2       13 UNK         0.5732 
     20 N         -58.8773  -27.0469    9.9916 N.am      13 UNK        -0.7310 
     21 O         -57.6808  -26.7888   11.8434 O.2       13 UNK        -0.5035 
     22 N         -55.2336  -26.9455   10.3738 N.am      13 UNK        -0.4233 
     23 C         -54.9205  -25.6574   10.2039 C.2       13 UNK         0.4989 
     24 O         -55.6260  -24.8481    9.5990 O.2       13 UNK        -0.4996 
     25 CA        -53.5969  -25.2030   10.8355 C.3       12 UNK         0.0216 
     26 CB        -53.0957  -23.8599   10.2731 C.3       12 UNK        -0.1964 
     27 N         -53.7644  -25.0866   12.2822 N.am      12 UNK        -0.4276 
     28 C         -53.5807  -26.0845   13.1522 C.2       12 UNK         0.5020 
     29 O         -53.1814  -27.2094   12.8379 O.2       12 UNK        -0.5489 
     30 CA        -53.9387  -25.7850   14.6101 C.3       11 UNK         0.0294 
     31 CB        -55.3883  -26.2093   14.9091 C.3       11 UNK        -0.2019 
     32 N         -53.0110  -26.5052   15.4742 N.am      11 UNK        -0.4493 
     33 C         -52.7298  -26.1911   16.7437 C.2       11 UNK         0.4932 
     34 O         -53.2448  -25.2505   17.3487 O.2       11 UNK        -0.5029 
     35 CA        -51.7139  -27.0818   17.4675 C.3       10 UNK         0.0280 
     36 CB        -52.0088  -28.5854   17.2840 C.3       10 UNK        -0.1976 
     37 N         -50.3571  -26.7654   17.0260 N.am      10 UNK        -0.4242 
     38 C         -49.2522  -26.9855   17.7499 C.2       10 UNK         0.5072 
     39 O         -49.2624  -27.4450   18.8935 O.2       10 UNK        -0.5224 
     40 CA        -47.9000  -26.6645   17.0904 C.3       9 UNK         0.0343 
     41 CB        -47.5115  -27.7674   16.0921 C.3       9 UNK        -0.2003 
     42 N         -47.8644  -25.3601   16.4259 N.am      9 UNK        -0.4272 
     43 C         -47.8750  -24.1803   17.0637 C.2       9 UNK         0.4988 
     44 O         -47.9133  -24.0629   18.2891 O.2       9 UNK        -0.5108 
     45 CA        -47.8258  -22.9118   16.1917 C.3       8 UNK         0.0248 
     46 CB        -46.3847  -22.5999   15.7565 C.3       8 UNK        -0.2001 
     47 N         -48.6885  -23.0006   15.0128 N.am      8 UNK        -0.4140 
     48 C         -50.0275  -23.0459   15.0607 C.2       8 UNK         0.5028 
     49 O         -50.6843  -22.9205   16.0941 O.2       8 UNK        -0.5428 
     50 CA        -50.7594  -23.3019   13.7328 C.3       7 UNK         0.0264 
     51 CB        -50.9468  -21.9823   12.9656 C.3       7 UNK        -0.1988 
     52 N         -50.0901  -24.3019   12.8902 N.am      7 UNK        -0.4454 
     53 C         -49.8629  -25.5736   13.2617 C.2       7 UNK         0.5027 
     54 O         -50.2442  -26.0551   14.3268 O.2       7 UNK        -0.5083 
     55 CA        -49.0170  -26.4449   12.3199 C.3       6 UNK         0.0844 
     56 C56       -49.8957  -27.0785   11.2167 C.3       14 UNK        -0.0967 
     57 S57       -48.9190  -28.0969   10.0613 S.3       14 UNK        -0.2604 
     58 C58       -49.1349  -29.7602   10.7661 C.3       14 UNK         0.0134 
     59 N         -47.8741  -25.6905   11.8034 N.am      6 UNK        -0.4116 
     60 C         -46.8195  -25.3121   12.5389 C.2       5 UNK         0.5034 
     61 O         -46.6783  -25.5931   13.7281 O.2       5 UNK        -0.5045 
     62 CA        -45.7686  -24.4300   11.8435 C.3       5 UNK         0.0224 
     63 CB        -44.7303  -25.2993   11.1170 C.3       5 UNK        -0.1978 
     64 N         -46.3655  -23.4847   10.8962 N.am      5 UNK        -0.4737 
     65 C         -47.2012  -22.4947   11.2414 C.2       4 UNK         0.5027 
     66 O         -47.4796  -22.2165   12.4075 O.2       4 UNK        -0.5211 
     67 CA        -47.8890  -21.7353   10.0907 C.3       4 UNK         0.0297 
     68 CB        -47.0565  -20.5102    9.6828 C.3       4 UNK        -0.1993 
     69 N         -48.1491  -22.5723    8.9103 N.am      4 UNK        -0.4486 
     70 C         -48.9249  -23.6649    8.9120 C.2       3 UNK         0.4961 
     71 O         -49.5313  -24.0667    9.9093 O.2       3 UNK        -0.5105 
     72 CA        -48.9816  -24.4753    7.6101 C.3       3 UNK         0.0299 
     73 CB        -47.6232  -25.1498    7.3278 C.3       3 UNK        -0.1972 
     74 N         -50.0219  -25.4909    7.7458 N.am      3 UNK        -0.4305 
     75 C         -50.5701  -26.2088    6.7607 C.2       2 UNK         0.5006 
     76 O         -50.2931  -26.0679    5.5667 O.2       2 UNK        -0.5106 
     77 CA        -51.6487  -27.2233    7.1852 C.3       2 UNK         0.0296 
     78 CB        -53.0314  -26.5541    7.2084 C.3       2 UNK        -0.2002 
     79 N         -51.7134  -28.3801    6.2923 N.am      2 UNK        -0.4032 
     80 C         -50.7513  -29.3014    6.1508 C.2       1 UNK         0.5000 
     81 O         -49.6892  -29.2884    6.7742 O.2       1 UNK        -0.5238 
     82 H82       -48.4000  -28.3097    4.4867 H         1 UNK         0.0889 
     83 H83       -47.6262  -29.1213    3.1283 H         1 UNK         0.0889 
     84 H84       -48.2462  -30.0719    4.4651 H         1 UNK         0.0889 
     85 H85       -51.7099  -29.8335    3.1758 H         1 UNK         0.3028 
     86 H86       -52.0828  -30.5884    5.1376 H         1 UNK         0.0864 
     87 H87       -49.8451  -32.0792    4.3384 H         1 UNK         0.0720 
     88 H88       -49.3876  -31.6219    5.9441 H         1 UNK         0.0720 
     89 H89       -49.6276  -33.5374    7.5079 H         1 UNK         0.0814 
     90 H90       -51.1406  -34.2884    7.9367 H         1 UNK         0.0814 
     91 H91       -48.9635  -31.7067    8.8723 H         1 UNK         0.1469 
     92 H92       -51.8289  -29.5129   11.1877 H         1 UNK         0.1381 
     93 H93       -53.1498  -32.5530    8.4739 H         1 UNK         0.1206 
     94 H94       -54.1054  -30.1560   11.1991 H         1 UNK         0.0813 
     95 H95       -54.6136  -31.6399   10.4261 H         1 UNK         0.0813 
     96 H96       -57.2705  -29.5604    9.4552 H         1 UNK         0.0638 
     97 H97       -56.3428  -29.4905   10.9296 H         1 UNK         0.0638 
     98 H98       -56.5846  -27.2672    8.8427 H         1 UNK         0.0568 
     99 H99       -58.9310  -27.3021    9.0179 H         1 UNK         0.3450 
    100 H100      -59.7085  -26.7481   10.4773 H         1 UNK         0.3450 
    101 H101      -54.6267  -27.5232   10.9389 H         1 UNK         0.2987 
    102 H102      -52.8449  -25.9596   10.6022 H         1 UNK         0.0766 
    103 H103      -53.1097  -23.8454    9.1837 H         1 UNK         0.0798 
    104 H104      -53.7039  -23.0208   10.6123 H         1 UNK         0.0798 
    105 H105      -52.0660  -23.6793   10.5736 H         1 UNK         0.0798 
    106 H106      -54.1539  -24.2158   12.6150 H         1 UNK         0.3198 
    107 H107      -53.8297  -24.7132   14.7894 H         1 UNK         0.0843 
    108 H108      -55.5291  -27.2817   14.7674 H         1 UNK         0.0831 
    109 H109      -56.0913  -25.7001   14.2481 H         1 UNK         0.0831 
    110 H110      -55.6733  -25.9663   15.9327 H         1 UNK         0.0831 
    111 H111      -52.5038  -27.2493   15.0098 H         1 UNK         0.3133 
    112 H112      -51.7993  -26.8494   18.5314 H         1 UNK         0.0566 
    113 H113      -51.8157  -28.9201   16.2644 H         1 UNK         0.0814 
    114 H114      -51.3946  -29.1909   17.9507 H         1 UNK         0.0814 
    115 H115      -53.0508  -28.8116   17.5145 H         1 UNK         0.0814 
    116 H116      -50.2689  -26.3824   16.0835 H         1 UNK         0.3091 
    117 H117      -47.1451  -26.6525   17.8796 H         1 UNK         0.0702 
    118 H118      -46.5145  -27.5998   15.6844 H         1 UNK         0.0785 
    119 H119      -48.2099  -27.8210   15.2569 H         1 UNK         0.0785 
    120 H120      -47.5041  -28.7458   16.5744 H         1 UNK         0.0785 
    121 H121      -47.7608  -25.3682   15.4165 H         1 UNK         0.2998 
    122 H122      -48.1808  -22.0775   16.8004 H         1 UNK         0.0697 
    123 H123      -45.9655  -23.3945   15.1391 H         1 UNK         0.0825 
    124 H124      -45.7330  -22.4828   16.6233 H         1 UNK         0.0825 
    125 H125      -46.3351  -21.6728   15.1849 H         1 UNK         0.0825 
    126 H126      -48.2342  -23.0196   14.1046 H         1 UNK         0.3029 
    127 H127      -51.7467  -23.6929   13.9807 H         1 UNK         0.0897 
    128 H128      -49.9944  -21.5396   12.6771 H         1 UNK         0.0792 
    129 H129      -51.4667  -21.2483   13.5828 H         1 UNK         0.0792 
    130 H130      -51.5407  -22.1134   12.0643 H         1 UNK         0.0792 
    131 H131      -49.7619  -23.9994   11.9788 H         1 UNK         0.3086 
    132 H132      -48.6143  -27.2650   12.9180 H         1 UNK         0.0583 
    133 H133      -50.6803  -27.6837   11.6710 H         1 UNK         0.1020 
    134 H134      -50.4177  -26.3149   10.6429 H         1 UNK         0.1020 
    135 H135      -48.1979  -30.3054   10.6441 H         1 UNK         0.0694 
    136 H136      -49.3048  -29.6974   11.8419 H         1 UNK         0.0694 
    137 H137      -47.9464  -25.3744   10.8474 H         1 UNK         0.2989 
    138 H138      -45.2575  -23.8546   12.6188 H         1 UNK         0.1055 
    139 H139      -44.2579  -25.9995   11.8077 H         1 UNK         0.0806 
    140 H140      -43.9367  -24.6907   10.6831 H         1 UNK         0.0806 
    141 H141      -45.1809  -25.8866   10.3157 H         1 UNK         0.0806 
    142 H142      -46.1791  -23.6337    9.9154 H         1 UNK         0.3061 
    143 H143      -48.8534  -21.3838   10.4631 H         1 UNK         0.0734 
    144 H144      -46.0862  -20.7963    9.2750 H         1 UNK         0.0832 
    145 H145      -47.5733  -19.9093    8.9343 H         1 UNK         0.0832 
    146 H146      -46.8705  -19.8632   10.5415 H         1 UNK         0.0832 
    147 H147      -47.6867  -22.3048    8.0527 H         1 UNK         0.3156 
    148 H148      -49.2437  -23.8008    6.7927 H         1 UNK         0.0589 
    149 H149      -47.3407  -25.8340    8.1294 H         1 UNK         0.0808 
    150 H150      -47.6475  -25.7225    6.4005 H         1 UNK         0.0808 
    151 H151      -46.8240  -24.4155    7.2242 H         1 UNK         0.0808 
    152 H152      -50.3341  -25.6136    8.7001 H         1 UNK         0.3098 
    153 H153      -51.4135  -27.5877    8.1880 H         1 UNK         0.0720 
    154 H154      -53.7936  -27.2271    7.6009 H         1 UNK         0.0791 
    155 H155      -53.3428  -26.2368    6.2123 H         1 UNK         0.0791 
    156 H156      -53.0258  -25.6672    7.8381 H         1 UNK         0.0791 
    157 H157      -52.5253  -28.4356    5.6957 H         1 UNK         0.3028 
@<TRIPOS>BOND
     1    1    2 1    
     2    1   82 1    
     3    1   83 1    
     4    1   84 1    
     5    2    3 2    
     6    2    4 am   BACKBONE|DICT|INTERRES
     7    4    5 1    
     8    4   85 1    
     9    5    6 1    
    10    5   80 1    
    11    5   86 1    
    12    6    7 1    
    13    6   87 1    
    14    6   88 1    
    15    7    8 1    
    16    8    9 1    
    17    8   89 1    
    18    8   90 1    
    19    9   10 ar   
    20    9   14 ar   
    21   10   11 ar   
    22   10   91 1    
    23   11   12 ar   
    24   11   58 1    
    25   12   13 ar   
    26   12   92 1    
    27   13   14 ar   
    28   13   15 1    
    29   14   93 1    
    30   15   16 1    
    31   15   94 1    
    32   15   95 1    
    33   16   17 1    
    34   17   18 1    
    35   17   96 1    
    36   17   97 1    
    37   18   19 1    
    38   18   22 1    
    39   18   98 1    
    40   19   20 am   BACKBONE|DICT|INTERRES
    41   19   21 2    
    42   20   99 1    
    43   20  100 1    
    44   22   23 am   BACKBONE|DICT|INTERRES
    45   22  101 1    
    46   23   24 2    
    47   23   25 1    
    48   25   26 1    
    49   25   27 1    
    50   25  102 1    
    51   26  103 1    
    52   26  104 1    
    53   26  105 1    
    54   27   28 am   BACKBONE|DICT|INTERRES
    55   27  106 1    
    56   28   29 2    
    57   28   30 1    
    58   30   31 1    
    59   30   32 1    
    60   30  107 1    
    61   31  108 1    
    62   31  109 1    
    63   31  110 1    
    64   32   33 am   BACKBONE|DICT|INTERRES
    65   32  111 1    
    66   33   34 2    
    67   33   35 1    
    68   35   36 1    
    69   35   37 1    
    70   35  112 1    
    71   36  113 1    
    72   36  114 1    
    73   36  115 1    
    74   37   38 am   BACKBONE|DICT|INTERRES
    75   37  116 1    
    76   38   39 2    
    77   38   40 1    
    78   40   41 1    
    79   40   42 1    
    80   40  117 1    
    81   41  118 1    
    82   41  119 1    
    83   41  120 1    
    84   42   43 am   BACKBONE|DICT|INTERRES
    85   42  121 1    
    86   43   44 2    
    87   43   45 1    
    88   45   46 1    
    89   45   47 1    
    90   45  122 1    
    91   46  123 1    
    92   46  124 1    
    93   46  125 1    
    94   47   48 am   BACKBONE|DICT|INTERRES
    95   47  126 1    
    96   48   49 2    
    97   48   50 1    
    98   50   51 1    
    99   50   52 1    
   100   50  127 1    
   101   51  128 1    
   102   51  129 1    
   103   51  130 1    
   104   52   53 am   BACKBONE|DICT|INTERRES
   105   52  131 1    
   106   53   54 2    
   107   53   55 1    
   108   55   56 1    
   109   55   59 1    
   110   55  132 1    
   111   56   57 1    
   112   56  133 1    
   113   56  134 1    
   114   57   58 1    
   115   58  135 1    
   116   58  136 1    
   117   59   60 am   BACKBONE|DICT|INTERRES
   118   59  137 1    
   119   60   61 2    
   120   60   62 1    
   121   62   63 1    
   122   62   64 1    
   123   62  138 1    
   124   63  139 1    
   125   63  140 1    
   126   63  141 1    
   127   64   65 am   BACKBONE|DICT|INTERRES
   128   64  142 1    
   129   65   66 2    
   130   65   67 1    
   131   67   68 1    
   132   67   69 1    
   133   67  143 1    
   134   68  144 1    
   135   68  145 1    
   136   68  146 1    
   137   69   70 am   BACKBONE|DICT|INTERRES
   138   69  147 1    
   139   70   71 2    
   140   70   72 1    
   141   72   73 1    
   142   72   74 1    
   143   72  148 1    
   144   73  149 1    
   145   73  150 1    
   146   73  151 1    
   147   74   75 am   BACKBONE|DICT|INTERRES
   148   74  152 1    
   149   75   76 2    
   150   75   77 1    
   151   77   78 1    
   152   77   79 1    
   153   77  153 1    
   154   78  154 1    
   155   78  155 1    
   156   78  156 1    
   157   79   80 am   BACKBONE|DICT|INTERRES
   158   79  157 1    
   159   80   81 2    
@<TRIPOS>SUBSTRUCTURE
     1 UNK         1 GROUP             0       ****    0 ROOT    
