@<TRIPOS>MOLECULE
3R207
157   159    1
SMALL
USER_CHARGES


@<TRIPOS>ATOM
      1 CA        -52.1189  -26.4154    0.7126 C.3       0 UNK        -0.1975 
      2 C         -51.5383  -25.9214    2.0294 C.2       0 UNK         0.4852 
      3 O         -51.0107  -24.8101    2.0862 O.2       0 UNK        -0.5216 
      4 N         -51.6304  -26.7395    3.0870 N.am      1 UNK        -0.4461 
      5 CA        -51.1438  -26.4287    4.4391 C.3       1 UNK         0.0864 
      6 C6        -51.7131  -27.4079    5.4924 C.3       14 UNK        -0.0898 
      7 S7        -53.5329  -27.3257    5.6007 S.3       14 UNK        -0.2598 
      8 C8        -53.8780  -28.5493    6.9096 C.3       14 UNK         0.0286 
      9 C9        -53.0880  -28.2740    8.1820 C.ar      14 UNK        -0.0844 
     10 C10       -53.2520  -27.0659    8.8654 C.ar      14 UNK        -0.0881 
     11 C11       -52.4910  -26.7875   10.0028 C.ar      14 UNK        -0.0643 
     12 C12       -51.5701  -27.7317   10.4664 C.ar      14 UNK        -0.0930 
     13 C13       -51.4064  -28.9484    9.7977 C.ar      14 UNK        -0.0827 
     14 C14       -52.1686  -29.2143    8.6567 C.ar      14 UNK        -0.1249 
     15 C15       -50.3860  -29.9630   10.2909 C.3       14 UNK         0.0141 
     16 S16       -50.8795  -30.7238   11.8679 S.3       14 UNK        -0.2313 
     17 C17       -52.2617  -31.8026   11.3481 C.3       14 UNK        -0.0915 
     18 CA        -53.6213  -31.4689   12.0192 C.3       13 UNK         0.0968 
     19 C         -53.6282  -31.8183   13.5370 C.2       13 UNK         0.5732 
     20 N         -53.7499  -33.0959   13.8733 N.am      13 UNK        -0.7310 
     21 O         -53.4973  -30.9591   14.4067 O.2       13 UNK        -0.5035 
     22 N         -54.0513  -30.0972   11.7135 N.am      13 UNK        -0.4233 
     23 C         -55.2587  -29.5950   11.9953 C.2       13 UNK         0.4989 
     24 O         -56.1899  -30.2490   12.4716 O.2       13 UNK        -0.4996 
     25 CA        -55.4820  -28.1129   11.6648 C.3       12 UNK         0.0216 
     26 CB        -56.4607  -27.9438   10.4912 C.3       12 UNK        -0.1964 
     27 N         -55.9850  -27.4029   12.8395 N.am      12 UNK        -0.4276 
     28 C         -55.2070  -27.0227   13.8599 C.2       12 UNK         0.5020 
     29 O         -53.9779  -27.1303   13.8572 O.2       12 UNK        -0.5489 
     30 CA        -55.9317  -26.4565   15.0929 C.3       11 UNK         0.0294 
     31 CB        -56.6146  -27.5866   15.8824 C.3       11 UNK        -0.2019 
     32 N         -54.9821  -25.7852   15.9769 N.am      11 UNK        -0.4493 
     33 C         -54.5696  -24.5200   15.8591 C.2       11 UNK         0.4932 
     34 O         -55.0650  -23.7071   15.0776 O.2       11 UNK        -0.5029 
     35 CA        -53.3918  -24.0908   16.7539 C.3       10 UNK         0.0280 
     36 CB        -53.8153  -23.9488   18.2294 C.3       10 UNK        -0.1976 
     37 N         -52.1979  -24.9370   16.6009 N.am      10 UNK        -0.4242 
     38 C         -52.0366  -26.2294   16.9300 C.2       10 UNK         0.5072 
     39 O         -52.8983  -26.9075   17.4931 O.2       10 UNK        -0.5224 
     40 CA        -50.7009  -26.8967   16.5594 C.3       9 UNK         0.0343 
     41 CB        -50.8023  -27.5787   15.1841 C.3       9 UNK        -0.2003 
     42 N         -49.5529  -25.9875   16.5658 N.am      9 UNK        -0.4272 
     43 C         -49.0005  -25.4608   17.6687 C.2       9 UNK         0.4988 
     44 O         -49.4410  -25.6324   18.8056 O.2       9 UNK        -0.5108 
     45 CA        -47.7321  -24.6162   17.4765 C.3       8 UNK         0.0248 
     46 CB        -46.5055  -25.5257   17.2916 C.3       8 UNK        -0.2001 
     47 N         -47.8559  -23.7310   16.3186 N.am      8 UNK        -0.4140 
     48 C         -48.1181  -22.4184   16.3822 C.2       8 UNK         0.5028 
     49 O         -48.2150  -21.7864   17.4352 O.2       8 UNK        -0.5428 
     50 CA        -48.3128  -21.6734   15.0464 C.3       7 UNK         0.0264 
     51 CB        -46.9941  -21.0228   14.5977 C.3       7 UNK        -0.1988 
     52 N         -48.8269  -22.5160   13.9618 N.am      7 UNK        -0.4454 
     53 C         -50.0234  -23.1215   13.9679 C.2       7 UNK         0.5027 
     54 O         -50.8401  -23.0080   14.8809 O.2       7 UNK        -0.5083 
     55 CA        -50.3520  -24.0539   12.7864 C.3       6 UNK         0.0844 
     56 C56       -51.1630  -23.2947   11.7037 C.3       14 UNK        -0.0967 
     57 S57       -51.4273  -24.2675   10.1818 S.3       14 UNK        -0.2604 
     58 C58       -52.6689  -25.4716   10.7383 C.3       14 UNK         0.0134 
     59 N         -49.1975  -24.7655   12.2250 N.am      6 UNK        -0.4116 
     60 C         -48.3070  -25.5187   12.8833 C.2       5 UNK         0.5034 
     61 O         -48.2479  -25.5909   14.1112 O.2       5 UNK        -0.5045 
     62 CA        -47.3354  -26.3634   12.0423 C.3       5 UNK         0.0224 
     63 CB        -47.5654  -27.8580   12.3209 C.3       5 UNK        -0.1978 
     64 N         -47.4309  -26.1262   10.5957 N.am      5 UNK        -0.4737 
     65 C         -46.8871  -25.0801    9.9583 C.2       4 UNK         0.5027 
     66 O         -46.3305  -24.1542   10.5500 O.2       4 UNK        -0.5211 
     67 CA        -46.9943  -25.0480    8.4165 C.3       4 UNK         0.0297 
     68 CB        -45.8028  -24.3131    7.7679 C.3       4 UNK        -0.1993 
     69 N         -47.1879  -26.3550    7.7690 N.am      4 UNK        -0.4486 
     70 C         -46.4024  -27.4425    7.8624 C.2       3 UNK         0.4961 
     71 O         -45.4092  -27.5221    8.5850 O.2       3 UNK        -0.5105 
     72 CA        -46.7896  -28.6547    6.9939 C.3       3 UNK         0.0299 
     73 CB        -47.8109  -29.5355    7.7322 C.3       3 UNK        -0.1972 
     74 N         -47.3316  -28.2804    5.6855 N.am      3 UNK        -0.4305 
     75 C         -46.6644  -27.6065    4.7365 C.2       2 UNK         0.5006 
     76 O         -45.4689  -27.3207    4.8140 O.2       2 UNK        -0.5106 
     77 CA        -47.4552  -27.1601    3.4905 C.3       2 UNK         0.0296 
     78 CB        -47.1067  -28.0514    2.2867 C.3       2 UNK        -0.2002 
     79 N         -48.9154  -27.1196    3.6448 N.am      2 UNK        -0.4032 
     80 C         -49.6033  -26.3854    4.5346 C.2       1 UNK         0.5000 
     81 O         -49.0732  -25.7111    5.4202 O.2       1 UNK        -0.5238 
     82 H82       -52.8967  -25.7348    0.3674 H         1 UNK         0.0889 
     83 H83       -52.5560  -27.4094    0.8065 H         1 UNK         0.0889 
     84 H84       -51.3402  -26.4576   -0.0485 H         1 UNK         0.0889 
     85 H85       -52.1058  -27.6258    2.9888 H         1 UNK         0.3028 
     86 H86       -51.4940  -25.4249    4.6909 H         1 UNK         0.0864 
     87 H87       -51.3060  -27.1708    6.4776 H         1 UNK         0.0720 
     88 H88       -51.4180  -28.4361    5.2739 H         1 UNK         0.0720 
     89 H89       -53.6601  -29.5467    6.5247 H         1 UNK         0.0814 
     90 H90       -54.9442  -28.5341    7.1391 H         1 UNK         0.0814 
     91 H91       -53.9580  -26.3339    8.4973 H         1 UNK         0.1469 
     92 H92       -50.9812  -27.5181   11.3481 H         1 UNK         0.1381 
     93 H93       -52.0343  -30.1481    8.1280 H         1 UNK         0.1206 
     94 H94       -50.2201  -30.7462    9.5495 H         1 UNK         0.0813 
     95 H95       -49.4242  -29.4683   10.4210 H         1 UNK         0.0813 
     96 H96       -52.3744  -31.7484   10.2646 H         1 UNK         0.0638 
     97 H97       -51.9786  -32.8363   11.5537 H         1 UNK         0.0638 
     98 H98       -54.3678  -32.1186   11.5579 H         1 UNK         0.0568 
     99 H99       -53.8482  -33.8145   13.1734 H         1 UNK         0.3450 
    100 H100      -53.7451  -33.3455   14.8497 H         1 UNK         0.3450 
    101 H101      -53.3330  -29.4889   11.3456 H         1 UNK         0.2987 
    102 H102      -54.5309  -27.6698   11.3792 H         1 UNK         0.0766 
    103 H103      -56.0912  -28.4571    9.6024 H         1 UNK         0.0798 
    104 H104      -56.5862  -26.8933   10.2283 H         1 UNK         0.0798 
    105 H105      -57.4448  -28.3549   10.7201 H         1 UNK         0.0798 
    106 H106      -56.9882  -27.3294   12.9300 H         1 UNK         0.3198 
    107 H107      -56.6886  -25.7426   14.7604 H         1 UNK         0.0843 
    108 H108      -55.8950  -28.3385   16.2104 H         1 UNK         0.0831 
    109 H109      -57.3643  -28.0971   15.2768 H         1 UNK         0.0831 
    110 H110      -57.1227  -27.2014   16.7666 H         1 UNK         0.0831 
    111 H111      -54.4286  -26.3838   16.5865 H         1 UNK         0.3133 
    112 H112      -53.0884  -23.0996   16.4139 H         1 UNK         0.0566 
    113 H113      -52.9917  -23.5829   18.8426 H         1 UNK         0.0814 
    114 H114      -54.1554  -24.8928   18.6556 H         1 UNK         0.0814 
    115 H115      -54.6355  -23.2368   18.3292 H         1 UNK         0.0814 
    116 H116      -51.4391  -24.4780   16.1069 H         1 UNK         0.3091 
    117 H117      -50.5106  -27.6733   17.3033 H         1 UNK         0.0702 
    118 H118      -49.8858  -28.1132   14.9332 H         1 UNK         0.0785 
    119 H119      -51.0004  -26.8606   14.3889 H         1 UNK         0.0785 
    120 H120      -51.6164  -28.3056   15.1678 H         1 UNK         0.0785 
    121 H121      -49.0980  -25.8287   15.6692 H         1 UNK         0.2998 
    122 H122      -47.5804  -24.0311   18.3861 H         1 UNK         0.0697 
    123 H123      -46.5856  -26.1407   16.3941 H         1 UNK         0.0825 
    124 H124      -46.3883  -26.2003   18.1408 H         1 UNK         0.0825 
    125 H125      -45.5890  -24.9406   17.2143 H         1 UNK         0.0825 
    126 H126      -47.8283  -24.1777   15.4078 H         1 UNK         0.3029 
    127 H127      -49.0433  -20.8808   15.2232 H         1 UNK         0.0897 
    128 H128      -46.2291  -21.7691   14.3792 H         1 UNK         0.0792 
    129 H129      -46.5978  -20.3680   15.3752 H         1 UNK         0.0792 
    130 H130      -47.1349  -20.4130   13.7050 H         1 UNK         0.0792 
    131 H131      -48.2128  -22.6751   13.1753 H         1 UNK         0.3086 
    132 H132      -50.9978  -24.8295   13.1986 H         1 UNK         0.0583 
    133 H133      -52.1326  -22.9837   12.0987 H         1 UNK         0.1020 
    134 H134      -50.6475  -22.3769   11.4131 H         1 UNK         0.1020 
    135 H135      -52.5910  -25.6487   11.8111 H         1 UNK         0.0694 
    136 H136      -53.6674  -25.0650   10.5705 H         1 UNK         0.0694 
    137 H137      -49.1572  -24.7808   11.2162 H         1 UNK         0.2989 
    138 H138      -46.3244  -26.1078   12.3679 H         1 UNK         0.1055 
    139 H139      -48.5979  -28.1492   12.1292 H         1 UNK         0.0806 
    140 H140      -46.9139  -28.4859   11.7126 H         1 UNK         0.0806 
    141 H141      -47.3565  -28.0948   13.3653 H         1 UNK         0.0806 
    142 H142      -47.8731  -26.8429   10.0389 H         1 UNK         0.3061 
    143 H143      -47.8942  -24.4719    8.1951 H         1 UNK         0.0734 
    144 H144      -44.8566  -24.8073    7.9908 H         1 UNK         0.0832 
    145 H145      -45.9092  -24.2669    6.6839 H         1 UNK         0.0832 
    146 H146      -45.7275  -23.2862    8.1277 H         1 UNK         0.0832 
    147 H147      -47.9565  -26.3863    7.1065 H         1 UNK         0.3156 
    148 H148      -45.8861  -29.2442    6.8240 H         1 UNK         0.0589 
    149 H149      -48.0243  -30.4484    7.1757 H         1 UNK         0.0808 
    150 H150      -47.4315  -29.8367    8.7098 H         1 UNK         0.0808 
    151 H151      -48.7546  -29.0123    7.8932 H         1 UNK         0.0808 
    152 H152      -48.3035  -28.4921    5.5180 H         1 UNK         0.3098 
    153 H153      -47.1318  -26.1421    3.2641 H         1 UNK         0.0720 
    154 H154      -46.0292  -28.0781    2.1174 H         1 UNK         0.0791 
    155 H155      -47.5652  -27.6796    1.3700 H         1 UNK         0.0791 
    156 H156      -47.4381  -29.0797    2.4370 H         1 UNK         0.0791 
    157 H157      -49.4495  -27.6443    2.9675 H         1 UNK         0.3028 
@<TRIPOS>BOND
     1    1    2 1    
     2    1   82 1    
     3    1   83 1    
     4    1   84 1    
     5    2    3 2    
     6    2    4 am   BACKBONE|DICT|INTERRES
     7    4    5 1    
     8    4   85 1    
     9    5    6 1    
    10    5   80 1    
    11    5   86 1    
    12    6    7 1    
    13    6   87 1    
    14    6   88 1    
    15    7    8 1    
    16    8    9 1    
    17    8   89 1    
    18    8   90 1    
    19    9   10 ar   
    20    9   14 ar   
    21   10   11 ar   
    22   10   91 1    
    23   11   12 ar   
    24   11   58 1    
    25   12   13 ar   
    26   12   92 1    
    27   13   14 ar   
    28   13   15 1    
    29   14   93 1    
    30   15   16 1    
    31   15   94 1    
    32   15   95 1    
    33   16   17 1    
    34   17   18 1    
    35   17   96 1    
    36   17   97 1    
    37   18   19 1    
    38   18   22 1    
    39   18   98 1    
    40   19   20 am   BACKBONE|DICT|INTERRES
    41   19   21 2    
    42   20   99 1    
    43   20  100 1    
    44   22   23 am   BACKBONE|DICT|INTERRES
    45   22  101 1    
    46   23   24 2    
    47   23   25 1    
    48   25   26 1    
    49   25   27 1    
    50   25  102 1    
    51   26  103 1    
    52   26  104 1    
    53   26  105 1    
    54   27   28 am   BACKBONE|DICT|INTERRES
    55   27  106 1    
    56   28   29 2    
    57   28   30 1    
    58   30   31 1    
    59   30   32 1    
    60   30  107 1    
    61   31  108 1    
    62   31  109 1    
    63   31  110 1    
    64   32   33 am   BACKBONE|DICT|INTERRES
    65   32  111 1    
    66   33   34 2    
    67   33   35 1    
    68   35   36 1    
    69   35   37 1    
    70   35  112 1    
    71   36  113 1    
    72   36  114 1    
    73   36  115 1    
    74   37   38 am   BACKBONE|DICT|INTERRES
    75   37  116 1    
    76   38   39 2    
    77   38   40 1    
    78   40   41 1    
    79   40   42 1    
    80   40  117 1    
    81   41  118 1    
    82   41  119 1    
    83   41  120 1    
    84   42   43 am   BACKBONE|DICT|INTERRES
    85   42  121 1    
    86   43   44 2    
    87   43   45 1    
    88   45   46 1    
    89   45   47 1    
    90   45  122 1    
    91   46  123 1    
    92   46  124 1    
    93   46  125 1    
    94   47   48 am   BACKBONE|DICT|INTERRES
    95   47  126 1    
    96   48   49 2    
    97   48   50 1    
    98   50   51 1    
    99   50   52 1    
   100   50  127 1    
   101   51  128 1    
   102   51  129 1    
   103   51  130 1    
   104   52   53 am   BACKBONE|DICT|INTERRES
   105   52  131 1    
   106   53   54 2    
   107   53   55 1    
   108   55   56 1    
   109   55   59 1    
   110   55  132 1    
   111   56   57 1    
   112   56  133 1    
   113   56  134 1    
   114   57   58 1    
   115   58  135 1    
   116   58  136 1    
   117   59   60 am   BACKBONE|DICT|INTERRES
   118   59  137 1    
   119   60   61 2    
   120   60   62 1    
   121   62   63 1    
   122   62   64 1    
   123   62  138 1    
   124   63  139 1    
   125   63  140 1    
   126   63  141 1    
   127   64   65 am   BACKBONE|DICT|INTERRES
   128   64  142 1    
   129   65   66 2    
   130   65   67 1    
   131   67   68 1    
   132   67   69 1    
   133   67  143 1    
   134   68  144 1    
   135   68  145 1    
   136   68  146 1    
   137   69   70 am   BACKBONE|DICT|INTERRES
   138   69  147 1    
   139   70   71 2    
   140   70   72 1    
   141   72   73 1    
   142   72   74 1    
   143   72  148 1    
   144   73  149 1    
   145   73  150 1    
   146   73  151 1    
   147   74   75 am   BACKBONE|DICT|INTERRES
   148   74  152 1    
   149   75   76 2    
   150   75   77 1    
   151   77   78 1    
   152   77   79 1    
   153   77  153 1    
   154   78  154 1    
   155   78  155 1    
   156   78  156 1    
   157   79   80 am   BACKBONE|DICT|INTERRES
   158   79  157 1    
   159   80   81 2    
@<TRIPOS>SUBSTRUCTURE
     1 UNK         1 GROUP             0       ****    0 ROOT    
