@<TRIPOS>MOLECULE
3R207
157   159    1
SMALL
USER_CHARGES


@<TRIPOS>ATOM
      1 CA        -54.8423  -23.6464   11.6967 C.3       0 UNK        -0.1975 
      2 C         -54.2259  -23.7776   10.3117 C.2       0 UNK         0.4852 
      3 O         -54.5275  -22.9691    9.4324 O.2       0 UNK        -0.5216 
      4 N         -53.3834  -24.8003   10.1170 N.am      1 UNK        -0.4461 
      5 CA        -52.6585  -25.1213    8.8841 C.3       1 UNK         0.0864 
      6 C6        -53.6049  -25.4660    7.6968 C.3       14 UNK        -0.0898 
      7 S7        -52.9173  -26.7313    6.5664 S.3       14 UNK        -0.2598 
      8 C8        -54.0680  -28.1406    6.7637 C.3       14 UNK         0.0286 
      9 C9        -53.5173  -29.3162    7.5742 C.ar      14 UNK        -0.0844 
     10 C10       -52.6131  -29.1421    8.6293 C.ar      14 UNK        -0.0881 
     11 C11       -52.1287  -30.2362    9.3545 C.ar      14 UNK        -0.0643 
     12 C12       -52.5525  -31.5215    9.0084 C.ar      14 UNK        -0.0930 
     13 C13       -53.4702  -31.7145    7.9720 C.ar      14 UNK        -0.0827 
     14 C14       -53.9495  -30.6094    7.2636 C.ar      14 UNK        -0.1249 
     15 C15       -53.9207  -33.1199    7.5996 C.3       14 UNK         0.0141 
     16 S16       -54.7298  -33.9830    8.9838 S.3       14 UNK        -0.2313 
     17 C17       -56.3516  -33.1450    9.0944 C.3       14 UNK        -0.0915 
     18 CA        -56.5894  -32.3634   10.4165 C.3       13 UNK         0.0968 
     19 C         -56.4933  -33.2763   11.6775 C.2       13 UNK         0.5732 
     20 N         -55.5245  -33.0862   12.5656 N.am      13 UNK        -0.7310 
     21 O         -57.3224  -34.1662   11.8542 O.2       13 UNK        -0.5035 
     22 N         -55.8126  -31.1127   10.4567 N.am      13 UNK        -0.4233 
     23 C         -56.0395  -30.1062   11.3110 C.2       13 UNK         0.4989 
     24 O         -56.8973  -30.1240   12.1972 O.2       13 UNK        -0.4996 
     25 CA        -55.1897  -28.8477   11.1312 C.3       12 UNK         0.0216 
     26 CB        -55.9033  -27.8255   10.2286 C.3       12 UNK        -0.1964 
     27 N         -54.9141  -28.2719   12.4417 N.am      12 UNK        -0.4276 
     28 C         -53.9068  -27.4399   12.7198 C.2       12 UNK         0.5020 
     29 O         -53.1229  -26.9968   11.8763 O.2       12 UNK        -0.5489 
     30 CA        -53.7349  -27.0621   14.1932 C.3       11 UNK         0.0294 
     31 CB        -53.0011  -28.1834   14.9489 C.3       11 UNK        -0.2019 
     32 N         -52.9447  -25.8391   14.3056 N.am      11 UNK        -0.4493 
     33 C         -53.2877  -24.7560   15.0118 C.2       11 UNK         0.4932 
     34 O         -54.3677  -24.6220   15.5903 O.2       11 UNK        -0.5029 
     35 CA        -52.2079  -23.6625   15.1145 C.3       10 UNK         0.0280 
     36 CB        -52.5976  -22.4958   16.0457 C.3       10 UNK        -0.1976 
     37 N         -50.9129  -24.2373   15.4960 N.am      10 UNK        -0.4242 
     38 C         -50.6164  -24.9334   16.6057 C.2       10 UNK         0.5072 
     39 O         -51.3795  -25.0766   17.5619 O.2       10 UNK        -0.5224 
     40 CA        -49.2409  -25.6239   16.6477 C.3       9 UNK         0.0343 
     41 CB        -49.3863  -27.1029   16.2524 C.3       9 UNK        -0.2003 
     42 N         -48.2471  -24.9928   15.7767 N.am      9 UNK        -0.4272 
     43 C         -47.6689  -23.8082   16.0198 C.2       9 UNK         0.4988 
     44 O         -47.8485  -23.1543   17.0479 O.2       9 UNK        -0.5108 
     45 CA        -46.7575  -23.2444   14.9172 C.3       8 UNK         0.0248 
     46 CB        -45.3599  -23.8807   14.9870 C.3       8 UNK        -0.2001 
     47 N         -47.3150  -23.4156   13.5720 N.am      8 UNK        -0.4140 
     48 C         -48.4500  -22.8484   13.1359 C.2       8 UNK         0.5028 
     49 O         -49.1433  -22.0899   13.8131 O.2       8 UNK        -0.5428 
     50 CA        -48.9074  -23.2057   11.7140 C.3       7 UNK         0.0264 
     51 CB        -48.1286  -22.3862   10.6738 C.3       7 UNK        -0.1988 
     52 N         -48.7769  -24.6348   11.4250 N.am      7 UNK        -0.4454 
     53 C         -49.5137  -25.5953   12.0026 C.2       7 UNK         0.5027 
     54 O         -50.4225  -25.3742   12.8046 O.2       7 UNK        -0.5083 
     55 CA        -49.1413  -27.0552   11.6736 C.3       6 UNK         0.0844 
     56 C56       -49.8689  -27.5453   10.4016 C.3       14 UNK        -0.0967 
     57 S57       -49.5873  -29.3179   10.0693 S.3       14 UNK        -0.2604 
     58 C58       -51.1922  -30.0396   10.5430 C.3       14 UNK         0.0134 
     59 N         -47.6888  -27.2504   11.6121 N.am      6 UNK        -0.4116 
     60 C         -46.8762  -27.1407   12.6711 C.2       5 UNK         0.5034 
     61 O         -47.2556  -26.8283   13.7994 O.2       5 UNK        -0.5045 
     62 CA        -45.3818  -27.4007   12.4331 C.3       5 UNK         0.0224 
     63 CB        -45.1040  -28.9093   12.3313 C.3       5 UNK        -0.1978 
     64 N         -44.8151  -26.7154   11.2662 N.am      5 UNK        -0.4737 
     65 C         -44.8273  -25.3898   11.0634 C.2       4 UNK         0.5027 
     66 O         -45.4677  -24.5951   11.7497 O.2       4 UNK        -0.5211 
     67 CA        -43.9666  -24.8650    9.9069 C.3       4 UNK         0.0297 
     68 CB        -42.5600  -25.4944    9.8870 C.3       4 UNK        -0.1993 
     69 N         -44.6342  -25.1123    8.6318 N.am      4 UNK        -0.4486 
     70 C         -45.3942  -24.2212    7.9847 C.2       3 UNK         0.4961 
     71 O         -45.5683  -23.0623    8.3669 O.2       3 UNK        -0.5105 
     72 CA        -46.0408  -24.6776    6.6605 C.3       3 UNK         0.0299 
     73 CB        -46.0550  -26.2110    6.4514 C.3       3 UNK        -0.1972 
     74 N         -47.3850  -24.1148    6.4900 N.am      3 UNK        -0.4305 
     75 C         -48.4537  -24.3357    7.2691 C.2       2 UNK         0.5006 
     76 O         -48.4412  -25.0862    8.2482 O.2       2 UNK        -0.5106 
     77 CA        -49.7486  -23.5900    6.8869 C.3       2 UNK         0.0296 
     78 CB        -49.9083  -23.3971    5.3646 C.3       2 UNK        -0.2002 
     79 N         -50.9122  -24.3226    7.3808 N.am      2 UNK        -0.4032 
     80 C         -51.5609  -24.0907    8.5269 C.2       1 UNK         0.5000 
     81 O         -51.3023  -23.1496    9.2814 O.2       1 UNK        -0.5238 
     82 H82       -54.3704  -22.8296   12.2421 H         1 UNK         0.0889 
     83 H83       -54.7264  -24.5596   12.2783 H         1 UNK         0.0889 
     84 H84       -55.9083  -23.4347   11.6175 H         1 UNK         0.0889 
     85 H85       -53.2072  -25.4521   10.8814 H         1 UNK         0.3028 
     86 H86       -52.1074  -26.0189    9.1460 H         1 UNK         0.0864 
     87 H87       -54.5620  -25.8233    8.0755 H         1 UNK         0.0720 
     88 H88       -53.8494  -24.5718    7.1201 H         1 UNK         0.0720 
     89 H89       -54.3131  -28.4871    5.7585 H         1 UNK         0.0814 
     90 H90       -55.0121  -27.8149    7.1984 H         1 UNK         0.0814 
     91 H91       -52.2938  -28.1523    8.9015 H         1 UNK         0.1469 
     92 H92       -52.1832  -32.3775    9.5571 H         1 UNK         0.1381 
     93 H93       -54.6552  -30.7578    6.4572 H         1 UNK         0.1206 
     94 H94       -54.5924  -33.1076    6.7398 H         1 UNK         0.0813 
     95 H95       -53.0462  -33.6958    7.2937 H         1 UNK         0.0813 
     96 H96       -57.1213  -33.9099    8.9780 H         1 UNK         0.0638 
     97 H97       -56.4780  -32.4778    8.2404 H         1 UNK         0.0638 
     98 H98       -57.6343  -32.0477   10.3904 H         1 UNK         0.0568 
     99 H99       -55.4769  -33.6800   13.3780 H         1 UNK         0.3450 
    100 H100      -54.8378  -32.3642   12.4249 H         1 UNK         0.3450 
    101 H101      -55.0769  -31.0301    9.7683 H         1 UNK         0.2987 
    102 H102      -54.2431  -29.1370   10.6830 H         1 UNK         0.0766 
    103 H103      -55.2720  -26.9599   10.0355 H         1 UNK         0.0798 
    104 H104      -56.8300  -27.4695   10.6801 H         1 UNK         0.0798 
    105 H105      -56.1576  -28.2655    9.2641 H         1 UNK         0.0798 
    106 H106      -55.5160  -28.6138   13.1814 H         1 UNK         0.3198 
    107 H107      -54.7267  -26.9213   14.6287 H         1 UNK         0.0843 
    108 H108      -52.0198  -28.3844   14.5161 H         1 UNK         0.0831 
    109 H109      -53.5672  -29.1154   14.9233 H         1 UNK         0.0831 
    110 H110      -52.8551  -27.9225   15.9975 H         1 UNK         0.0831 
    111 H111      -52.0794  -25.8214   13.7687 H         1 UNK         0.3133 
    112 H112      -52.0788  -23.2569   14.1097 H         1 UNK         0.0566 
    113 H113      -51.8131  -21.7396   16.0788 H         1 UNK         0.0814 
    114 H114      -53.5068  -22.0059   15.6953 H         1 UNK         0.0814 
    115 H115      -52.7830  -22.8326   17.0661 H         1 UNK         0.0814 
    116 H116      -50.2155  -24.2228   14.7627 H         1 UNK         0.3091 
    117 H117      -48.8766  -25.5770   17.6761 H         1 UNK         0.0702 
    118 H118      -48.4371  -27.6318   16.3389 H         1 UNK         0.0785 
    119 H119      -49.7364  -27.2106   15.2246 H         1 UNK         0.0785 
    120 H120      -50.1032  -27.6132   16.8971 H         1 UNK         0.0785 
    121 H121      -47.9820  -25.5079   14.9398 H         1 UNK         0.2998 
    122 H122      -46.6506  -22.1720   15.0935 H         1 UNK         0.0697 
    123 H123      -45.3934  -24.9520   14.7870 H         1 UNK         0.0825 
    124 H124      -44.9174  -23.7456   15.9748 H         1 UNK         0.0825 
    125 H125      -44.6822  -23.4278   14.2631 H         1 UNK         0.0825 
    126 H126      -46.7707  -23.9799   12.9214 H         1 UNK         0.3029 
    127 H127      -49.9645  -22.9430   11.6319 H         1 UNK         0.0897 
    128 H128      -48.5172  -22.5528    9.6703 H         1 UNK         0.0792 
    129 H129      -48.2111  -21.3178   10.8768 H         1 UNK         0.0792 
    130 H130      -47.0675  -22.6378   10.6685 H         1 UNK         0.0792 
    131 H131      -48.0610  -24.9006   10.7624 H         1 UNK         0.3086 
    132 H132      -49.5079  -27.6604   12.5063 H         1 UNK         0.0583 
    133 H133      -50.9375  -27.3698   10.5114 H         1 UNK         0.1020 
    134 H134      -49.5544  -26.9790    9.5252 H         1 UNK         0.1020 
    135 H135      -50.9946  -30.9965   11.0282 H         1 UNK         0.0694 
    136 H136      -51.6808  -29.4220   11.2979 H         1 UNK         0.0694 
    137 H137      -47.2997  -27.5107   10.7181 H         1 UNK         0.2989 
    138 H138      -44.8535  -27.0222   13.3110 H         1 UNK         0.1055 
    139 H139      -45.5064  -29.4397   13.1959 H         1 UNK         0.0806 
    140 H140      -44.0339  -29.1152   12.2994 H         1 UNK         0.0806 
    141 H141      -45.5574  -29.3474   11.4412 H         1 UNK         0.0806 
    142 H142      -44.2668  -27.2855   10.6392 H         1 UNK         0.3061 
    143 H143      -43.8379  -23.7914   10.0627 H         1 UNK         0.0734 
    144 H144      -41.9227  -24.9976    9.1552 H         1 UNK         0.0832 
    145 H145      -42.0722  -25.3916   10.8575 H         1 UNK         0.0832 
    146 H146      -42.5775  -26.5558    9.6382 H         1 UNK         0.0832 
    147 H147      -44.5626  -26.0437    8.2487 H         1 UNK         0.3156 
    148 H148      -45.4316  -24.2452    5.8656 H         1 UNK         0.0589 
    149 H149      -46.5645  -26.7328    7.2627 H         1 UNK         0.0808 
    150 H150      -46.5643  -26.4734    5.5239 H         1 UNK         0.0808 
    151 H151      -45.0443  -26.6136    6.3768 H         1 UNK         0.0808 
    152 H152      -47.4835  -23.4529    5.7335 H         1 UNK         0.3098 
    153 H153      -49.7069  -22.6041    7.3542 H         1 UNK         0.0720 
    154 H154      -49.8329  -24.3430    4.8259 H         1 UNK         0.0791 
    155 H155      -49.1525  -22.7222    4.9619 H         1 UNK         0.0791 
    156 H156      -50.8769  -22.9576    5.1246 H         1 UNK         0.0791 
    157 H157      -51.1813  -25.1409    6.8497 H         1 UNK         0.3028 
@<TRIPOS>BOND
     1    1    2 1    
     2    1   82 1    
     3    1   83 1    
     4    1   84 1    
     5    2    3 2    
     6    2    4 am   BACKBONE|DICT|INTERRES
     7    4    5 1    
     8    4   85 1    
     9    5    6 1    
    10    5   80 1    
    11    5   86 1    
    12    6    7 1    
    13    6   87 1    
    14    6   88 1    
    15    7    8 1    
    16    8    9 1    
    17    8   89 1    
    18    8   90 1    
    19    9   10 ar   
    20    9   14 ar   
    21   10   11 ar   
    22   10   91 1    
    23   11   12 ar   
    24   11   58 1    
    25   12   13 ar   
    26   12   92 1    
    27   13   14 ar   
    28   13   15 1    
    29   14   93 1    
    30   15   16 1    
    31   15   94 1    
    32   15   95 1    
    33   16   17 1    
    34   17   18 1    
    35   17   96 1    
    36   17   97 1    
    37   18   19 1    
    38   18   22 1    
    39   18   98 1    
    40   19   20 am   BACKBONE|DICT|INTERRES
    41   19   21 2    
    42   20   99 1    
    43   20  100 1    
    44   22   23 am   BACKBONE|DICT|INTERRES
    45   22  101 1    
    46   23   24 2    
    47   23   25 1    
    48   25   26 1    
    49   25   27 1    
    50   25  102 1    
    51   26  103 1    
    52   26  104 1    
    53   26  105 1    
    54   27   28 am   BACKBONE|DICT|INTERRES
    55   27  106 1    
    56   28   29 2    
    57   28   30 1    
    58   30   31 1    
    59   30   32 1    
    60   30  107 1    
    61   31  108 1    
    62   31  109 1    
    63   31  110 1    
    64   32   33 am   BACKBONE|DICT|INTERRES
    65   32  111 1    
    66   33   34 2    
    67   33   35 1    
    68   35   36 1    
    69   35   37 1    
    70   35  112 1    
    71   36  113 1    
    72   36  114 1    
    73   36  115 1    
    74   37   38 am   BACKBONE|DICT|INTERRES
    75   37  116 1    
    76   38   39 2    
    77   38   40 1    
    78   40   41 1    
    79   40   42 1    
    80   40  117 1    
    81   41  118 1    
    82   41  119 1    
    83   41  120 1    
    84   42   43 am   BACKBONE|DICT|INTERRES
    85   42  121 1    
    86   43   44 2    
    87   43   45 1    
    88   45   46 1    
    89   45   47 1    
    90   45  122 1    
    91   46  123 1    
    92   46  124 1    
    93   46  125 1    
    94   47   48 am   BACKBONE|DICT|INTERRES
    95   47  126 1    
    96   48   49 2    
    97   48   50 1    
    98   50   51 1    
    99   50   52 1    
   100   50  127 1    
   101   51  128 1    
   102   51  129 1    
   103   51  130 1    
   104   52   53 am   BACKBONE|DICT|INTERRES
   105   52  131 1    
   106   53   54 2    
   107   53   55 1    
   108   55   56 1    
   109   55   59 1    
   110   55  132 1    
   111   56   57 1    
   112   56  133 1    
   113   56  134 1    
   114   57   58 1    
   115   58  135 1    
   116   58  136 1    
   117   59   60 am   BACKBONE|DICT|INTERRES
   118   59  137 1    
   119   60   61 2    
   120   60   62 1    
   121   62   63 1    
   122   62   64 1    
   123   62  138 1    
   124   63  139 1    
   125   63  140 1    
   126   63  141 1    
   127   64   65 am   BACKBONE|DICT|INTERRES
   128   64  142 1    
   129   65   66 2    
   130   65   67 1    
   131   67   68 1    
   132   67   69 1    
   133   67  143 1    
   134   68  144 1    
   135   68  145 1    
   136   68  146 1    
   137   69   70 am   BACKBONE|DICT|INTERRES
   138   69  147 1    
   139   70   71 2    
   140   70   72 1    
   141   72   73 1    
   142   72   74 1    
   143   72  148 1    
   144   73  149 1    
   145   73  150 1    
   146   73  151 1    
   147   74   75 am   BACKBONE|DICT|INTERRES
   148   74  152 1    
   149   75   76 2    
   150   75   77 1    
   151   77   78 1    
   152   77   79 1    
   153   77  153 1    
   154   78  154 1    
   155   78  155 1    
   156   78  156 1    
   157   79   80 am   BACKBONE|DICT|INTERRES
   158   79  157 1    
   159   80   81 2    
@<TRIPOS>SUBSTRUCTURE
     1 UNK         1 GROUP             0       ****    0 ROOT    
