@<TRIPOS>MOLECULE
3R207
157   159    1
SMALL
USER_CHARGES


@<TRIPOS>ATOM
      1 CA        -47.7234  -30.0058    5.6489 C.3       0 UNK        -0.1975 
      2 C         -48.3564  -28.8108    4.9500 C.2       0 UNK         0.4852 
      3 O         -48.7120  -28.9034    3.7748 O.2       0 UNK        -0.5216 
      4 N         -48.4999  -27.6929    5.6662 N.am      1 UNK        -0.4461 
      5 CA        -49.0563  -26.4289    5.1879 C.3       1 UNK         0.0864 
      6 C6        -50.6103  -26.4233    5.1290 C.3       14 UNK        -0.0898 
      7 S7        -51.4286  -26.8368    6.7109 S.3       14 UNK        -0.2598 
      8 C8        -51.9296  -28.5621    6.4100 C.3       14 UNK         0.0286 
      9 C9        -51.8924  -29.3686    7.6969 C.ar      14 UNK        -0.0844 
     10 C10       -50.6627  -29.7390    8.2421 C.ar      14 UNK        -0.0881 
     11 C11       -50.5962  -30.4598    9.4370 C.ar      14 UNK        -0.0643 
     12 C12       -51.7808  -30.8228   10.0862 C.ar      14 UNK        -0.0930 
     13 C13       -53.0206  -30.4800    9.5351 C.ar      14 UNK        -0.0827 
     14 C14       -53.0707  -29.7521    8.3412 C.ar      14 UNK        -0.1249 
     15 C15       -54.3140  -30.9060   10.2100 C.3       14 UNK         0.0141 
     16 S16       -55.0502  -29.5239   11.1335 S.3       14 UNK        -0.2313 
     17 C17       -54.8074  -30.0104   12.8782 C.3       14 UNK        -0.0915 
     18 CA        -56.0317  -29.6035   13.7433 C.3       13 UNK         0.0968 
     19 C         -55.9498  -30.1582   15.1952 C.2       13 UNK         0.5732 
     20 N         -56.1997  -29.3665   16.2336 N.am      13 UNK        -0.7310 
     21 O         -55.6814  -31.3418   15.3876 O.2       13 UNK        -0.5035 
     22 N         -56.2345  -28.1508   13.7008 N.am      13 UNK        -0.4233 
     23 C         -57.3927  -27.5229   13.4744 C.2       13 UNK         0.4989 
     24 O         -58.4568  -28.1042   13.2528 O.2       13 UNK        -0.4996 
     25 CA        -57.3505  -25.9808   13.4832 C.3       12 UNK         0.0216 
     26 CB        -58.7070  -25.3449   13.8570 C.3       12 UNK        -0.1964 
     27 N         -56.2660  -25.4324   14.3077 N.am      12 UNK        -0.4276 
     28 C         -56.1034  -25.5791   15.6298 C.2       12 UNK         0.5020 
     29 O         -56.8689  -26.2075   16.3652 O.2       12 UNK        -0.5489 
     30 CA        -54.8328  -24.9494   16.2214 C.3       11 UNK         0.0294 
     31 CB        -55.1838  -23.9321   17.3194 C.3       11 UNK        -0.2019 
     32 N         -53.8938  -25.9369   16.7595 N.am      11 UNK        -0.4493 
     33 C         -53.4258  -27.0171   16.1194 C.2       11 UNK         0.4932 
     34 O         -53.7885  -27.3789   15.0002 O.2       11 UNK        -0.5029 
     35 CA        -52.2716  -27.7462   16.8127 C.3       10 UNK         0.0280 
     36 CB        -52.1640  -29.2225   16.3874 C.3       10 UNK        -0.1976 
     37 N         -51.0680  -27.0287   16.4096 N.am      10 UNK        -0.4242 
     38 C         -50.4726  -26.0727   17.1342 C.2       10 UNK         0.5072 
     39 O         -50.7151  -25.8581   18.3229 O.2       10 UNK        -0.5224 
     40 CA        -49.4912  -25.1554   16.3847 C.3       9 UNK         0.0343 
     41 CB        -48.1770  -25.8877   16.0706 C.3       9 UNK        -0.2003 
     42 N         -50.0719  -24.6140   15.1507 N.am      9 UNK        -0.4272 
     43 C         -51.1293  -23.7860   15.0991 C.2       9 UNK         0.4988 
     44 O         -51.6957  -23.3348   16.0942 O.2       9 UNK        -0.5108 
     45 CA        -51.6572  -23.3998   13.7092 C.3       8 UNK         0.0248 
     46 CB        -50.8517  -22.2276   13.1241 C.3       8 UNK        -0.2001 
     47 N         -51.6062  -24.5440   12.7983 N.am      8 UNK        -0.4140 
     48 C         -52.6514  -25.3297   12.5004 C.2       8 UNK         0.5028 
     49 O         -53.8081  -25.0827   12.8507 O.2       8 UNK        -0.5428 
     50 CA        -52.3821  -26.5902   11.6501 C.3       7 UNK         0.0264 
     51 CB        -52.9488  -26.4041   10.2346 C.3       7 UNK        -0.1988 
     52 N         -50.9656  -26.9663   11.5488 N.am      7 UNK        -0.4454 
     53 C         -50.2359  -27.4714   12.5547 C.2       7 UNK         0.5027 
     54 O         -50.6915  -27.7123   13.6708 O.2       7 UNK        -0.5083 
     55 CA        -48.7179  -27.6390   12.3313 C.3       6 UNK         0.0844 
     56 C56       -48.2975  -29.0954   11.9983 C.3       14 UNK        -0.0967 
     57 S57       -48.1178  -29.4701   10.2187 S.3       14 UNK        -0.2604 
     58 C58       -49.2417  -30.8850    9.9836 C.3       14 UNK         0.0134 
     59 N         -48.1445  -26.6388   11.4252 N.am      6 UNK        -0.4116 
     60 C         -48.1458  -25.3167   11.6383 C.2       5 UNK         0.5034 
     61 O         -48.6680  -24.8020   12.6284 O.2       5 UNK        -0.5045 
     62 CA        -47.5159  -24.4164   10.5588 C.3       5 UNK         0.0224 
     63 CB        -46.7963  -23.1942   11.1655 C.3       5 UNK        -0.1978 
     64 N         -46.6488  -25.1244    9.6074 N.am      5 UNK        -0.4737 
     65 C         -45.4795  -25.7380    9.8492 C.2       4 UNK         0.5027 
     66 O         -44.9591  -25.8283   10.9605 O.2       4 UNK        -0.5211 
     67 CA        -44.7738  -26.3574    8.6334 C.3       4 UNK         0.0297 
     68 CB        -45.3558  -27.7455    8.3178 C.3       4 UNK        -0.1993 
     69 N         -44.9002  -25.4926    7.4585 N.am      4 UNK        -0.4486 
     70 C         -44.0479  -24.5046    7.1499 C.2       3 UNK         0.4961 
     71 O         -43.0078  -24.2769    7.7685 O.2       3 UNK        -0.5105 
     72 CA        -44.4118  -23.6143    5.9462 C.3       3 UNK         0.0299 
     73 CB        -43.7934  -24.1769    4.6562 C.3       3 UNK        -0.1972 
     74 N         -45.8570  -23.4569    5.7626 N.am      3 UNK        -0.4305 
     75 C         -46.6603  -22.7701    6.5888 C.2       2 UNK         0.5006 
     76 O         -46.2547  -22.1133    7.5475 O.2       2 UNK        -0.5106 
     77 CA        -48.1762  -22.8405    6.3191 C.3       2 UNK         0.0296 
     78 CB        -48.6401  -21.5980    5.5414 C.3       2 UNK        -0.2002 
     79 N         -48.6228  -24.0491    5.6121 N.am      2 UNK        -0.4032 
     80 C         -48.4777  -25.3033    6.0635 C.2       1 UNK         0.5000 
     81 O         -47.8860  -25.5855    7.1122 O.2       1 UNK        -0.5238 
     82 H82       -46.8417  -30.3370    5.1011 H         1 UNK         0.0889 
     83 H83       -48.4309  -30.8336    5.6899 H         1 UNK         0.0889 
     84 H84       -47.4184  -29.7698    6.6685 H         1 UNK         0.0889 
     85 H85       -48.1633  -27.6334    6.6188 H         1 UNK         0.3028 
     86 H86       -48.6750  -26.2582    4.1787 H         1 UNK         0.0864 
     87 H87       -50.9472  -27.1172    4.3576 H         1 UNK         0.0720 
     88 H88       -50.9768  -25.4474    4.8068 H         1 UNK         0.0720 
     89 H89       -51.2646  -29.0314    5.6843 H         1 UNK         0.0814 
     90 H90       -52.9265  -28.5746    5.9671 H         1 UNK         0.0814 
     91 H91       -49.7503  -29.4542    7.7390 H         1 UNK         0.1469 
     92 H92       -51.7402  -31.3873   11.0076 H         1 UNK         0.1381 
     93 H93       -54.0287  -29.4766    7.9216 H         1 UNK         0.1206 
     94 H94       -54.1473  -31.7693   10.8547 H         1 UNK         0.0813 
     95 H95       -55.0257  -31.2343    9.4511 H         1 UNK         0.0813 
     96 H96       -53.8941  -29.5422   13.2498 H         1 UNK         0.0638 
     97 H97       -54.6475  -31.0878   12.9338 H         1 UNK         0.0638 
     98 H98       -56.9044  -30.0956   13.3110 H         1 UNK         0.0568 
     99 H99       -56.4338  -28.3915   16.0985 H         1 UNK         0.3450 
    100 H100      -56.1597  -29.7501   17.1637 H         1 UNK         0.3450 
    101 H101      -55.4117  -27.6065   13.9458 H         1 UNK         0.2987 
    102 H102      -57.1207  -25.6867   12.4580 H         1 UNK         0.0766 
    103 H103      -58.6518  -24.2564   13.8450 H         1 UNK         0.0798 
    104 H104      -59.0397  -25.6536   14.8484 H         1 UNK         0.0798 
    105 H105      -59.4844  -25.6357   13.1494 H         1 UNK         0.0798 
    106 H106      -55.4857  -25.0364   13.7834 H         1 UNK         0.3198 
    107 H107      -54.3075  -24.4127   15.4294 H         1 UNK         0.0843 
    108 H108      -55.6567  -24.4118   18.1774 H         1 UNK         0.0831 
    109 H109      -55.8770  -23.1778   16.9446 H         1 UNK         0.0831 
    110 H110      -54.2956  -23.4069   17.6719 H         1 UNK         0.0831 
    111 H111      -53.4959  -25.7197   17.6622 H         1 UNK         0.3133 
    112 H112      -52.4162  -27.7087   17.8944 H         1 UNK         0.0566 
    113 H113      -51.3225  -29.7133   16.8760 H         1 UNK         0.0814 
    114 H114      -53.0664  -29.7701   16.6615 H         1 UNK         0.0814 
    115 H115      -52.0335  -29.3325   15.3103 H         1 UNK         0.0814 
    116 H116      -50.8332  -27.1218   15.4224 H         1 UNK         0.3091 
    117 H117      -49.2589  -24.3094   17.0349 H         1 UNK         0.0702 
    118 H118      -47.4877  -25.2516   15.5145 H         1 UNK         0.0785 
    119 H119      -48.3463  -26.7921   15.4876 H         1 UNK         0.0785 
    120 H120      -47.6731  -26.1873   16.9904 H         1 UNK         0.0785 
    121 H121      -49.6092  -24.8614   14.2812 H         1 UNK         0.2998 
    122 H122      -52.6892  -23.0633   13.8280 H         1 UNK         0.0697 
    123 H123      -49.7934  -22.4661   13.0191 H         1 UNK         0.0825 
    124 H124      -50.9225  -21.3504   13.7686 H         1 UNK         0.0825 
    125 H125      -51.2289  -21.9394   12.1429 H         1 UNK         0.0825 
    126 H126      -50.6852  -24.8135   12.4748 H         1 UNK         0.3029 
    127 H127      -52.9158  -27.4148   12.1283 H         1 UNK         0.0897 
    128 H128      -54.0165  -26.1827   10.2672 H         1 UNK         0.0792 
    129 H129      -52.8287  -27.3090    9.6412 H         1 UNK         0.0792 
    130 H130      -52.4587  -25.5870    9.7040 H         1 UNK         0.0792 
    131 H131      -50.5160  -26.8118   10.6580 H         1 UNK         0.3086 
    132 H132      -48.2725  -27.4238   13.3034 H         1 UNK         0.0583 
    133 H133      -47.3198  -29.2831   12.4451 H         1 UNK         0.1020 
    134 H134      -48.9626  -29.8157   12.4787 H         1 UNK         0.1020 
    135 H135      -48.7848  -31.5670    9.2653 H         1 UNK         0.0694 
    136 H136      -49.3444  -31.4505   10.9106 H         1 UNK         0.0694 
    137 H137      -47.7097  -26.9973   10.5874 H         1 UNK         0.2989 
    138 H138      -48.3532  -24.0397    9.9691 H         1 UNK         0.1055 
    139 H139      -47.4859  -22.5792   11.7448 H         1 UNK         0.0806 
    140 H140      -46.3738  -22.5580   10.3875 H         1 UNK         0.0806 
    141 H141      -45.9875  -23.4900   11.8341 H         1 UNK         0.0806 
    142 H142      -47.0178  -25.1821    8.6593 H         1 UNK         0.3061 
    143 H143      -43.7178  -26.4842    8.8826 H         1 UNK         0.0734 
    144 H144      -44.8500  -28.2043    7.4682 H         1 UNK         0.0832 
    145 H145      -45.2349  -28.4186    9.1677 H         1 UNK         0.0832 
    146 H146      -46.4207  -27.7004    8.0903 H         1 UNK         0.0832 
    147 H147      -45.7610  -25.5704    6.9323 H         1 UNK         0.3156 
    148 H148      -43.9840  -22.6254    6.1249 H         1 UNK         0.0589 
    149 H149      -44.1918  -25.1623    4.4111 H         1 UNK         0.0808 
    150 H150      -43.9769  -23.5182    3.8071 H         1 UNK         0.0808 
    151 H151      -42.7117  -24.2792    4.7559 H         1 UNK         0.0808 
    152 H152      -46.2737  -23.9387    4.9798 H         1 UNK         0.3098 
    153 H153      -48.6710  -22.8354    7.2927 H         1 UNK         0.0720 
    154 H154      -49.7252  -21.5754    5.4382 H         1 UNK         0.0791 
    155 H155      -48.2051  -21.5610    4.5418 H         1 UNK         0.0791 
    156 H156      -48.3480  -20.6822    6.0576 H         1 UNK         0.0791 
    157 H157      -49.1093  -23.9009    4.7393 H         1 UNK         0.3028 
@<TRIPOS>BOND
     1    1    2 1    
     2    1   82 1    
     3    1   83 1    
     4    1   84 1    
     5    2    3 2    
     6    2    4 am   BACKBONE|DICT|INTERRES
     7    4    5 1    
     8    4   85 1    
     9    5    6 1    
    10    5   80 1    
    11    5   86 1    
    12    6    7 1    
    13    6   87 1    
    14    6   88 1    
    15    7    8 1    
    16    8    9 1    
    17    8   89 1    
    18    8   90 1    
    19    9   10 ar   
    20    9   14 ar   
    21   10   11 ar   
    22   10   91 1    
    23   11   12 ar   
    24   11   58 1    
    25   12   13 ar   
    26   12   92 1    
    27   13   14 ar   
    28   13   15 1    
    29   14   93 1    
    30   15   16 1    
    31   15   94 1    
    32   15   95 1    
    33   16   17 1    
    34   17   18 1    
    35   17   96 1    
    36   17   97 1    
    37   18   19 1    
    38   18   22 1    
    39   18   98 1    
    40   19   20 am   BACKBONE|DICT|INTERRES
    41   19   21 2    
    42   20   99 1    
    43   20  100 1    
    44   22   23 am   BACKBONE|DICT|INTERRES
    45   22  101 1    
    46   23   24 2    
    47   23   25 1    
    48   25   26 1    
    49   25   27 1    
    50   25  102 1    
    51   26  103 1    
    52   26  104 1    
    53   26  105 1    
    54   27   28 am   BACKBONE|DICT|INTERRES
    55   27  106 1    
    56   28   29 2    
    57   28   30 1    
    58   30   31 1    
    59   30   32 1    
    60   30  107 1    
    61   31  108 1    
    62   31  109 1    
    63   31  110 1    
    64   32   33 am   BACKBONE|DICT|INTERRES
    65   32  111 1    
    66   33   34 2    
    67   33   35 1    
    68   35   36 1    
    69   35   37 1    
    70   35  112 1    
    71   36  113 1    
    72   36  114 1    
    73   36  115 1    
    74   37   38 am   BACKBONE|DICT|INTERRES
    75   37  116 1    
    76   38   39 2    
    77   38   40 1    
    78   40   41 1    
    79   40   42 1    
    80   40  117 1    
    81   41  118 1    
    82   41  119 1    
    83   41  120 1    
    84   42   43 am   BACKBONE|DICT|INTERRES
    85   42  121 1    
    86   43   44 2    
    87   43   45 1    
    88   45   46 1    
    89   45   47 1    
    90   45  122 1    
    91   46  123 1    
    92   46  124 1    
    93   46  125 1    
    94   47   48 am   BACKBONE|DICT|INTERRES
    95   47  126 1    
    96   48   49 2    
    97   48   50 1    
    98   50   51 1    
    99   50   52 1    
   100   50  127 1    
   101   51  128 1    
   102   51  129 1    
   103   51  130 1    
   104   52   53 am   BACKBONE|DICT|INTERRES
   105   52  131 1    
   106   53   54 2    
   107   53   55 1    
   108   55   56 1    
   109   55   59 1    
   110   55  132 1    
   111   56   57 1    
   112   56  133 1    
   113   56  134 1    
   114   57   58 1    
   115   58  135 1    
   116   58  136 1    
   117   59   60 am   BACKBONE|DICT|INTERRES
   118   59  137 1    
   119   60   61 2    
   120   60   62 1    
   121   62   63 1    
   122   62   64 1    
   123   62  138 1    
   124   63  139 1    
   125   63  140 1    
   126   63  141 1    
   127   64   65 am   BACKBONE|DICT|INTERRES
   128   64  142 1    
   129   65   66 2    
   130   65   67 1    
   131   67   68 1    
   132   67   69 1    
   133   67  143 1    
   134   68  144 1    
   135   68  145 1    
   136   68  146 1    
   137   69   70 am   BACKBONE|DICT|INTERRES
   138   69  147 1    
   139   70   71 2    
   140   70   72 1    
   141   72   73 1    
   142   72   74 1    
   143   72  148 1    
   144   73  149 1    
   145   73  150 1    
   146   73  151 1    
   147   74   75 am   BACKBONE|DICT|INTERRES
   148   74  152 1    
   149   75   76 2    
   150   75   77 1    
   151   77   78 1    
   152   77   79 1    
   153   77  153 1    
   154   78  154 1    
   155   78  155 1    
   156   78  156 1    
   157   79   80 am   BACKBONE|DICT|INTERRES
   158   79  157 1    
   159   80   81 2    
@<TRIPOS>SUBSTRUCTURE
     1 UNK         1 GROUP             0       ****    0 ROOT    
