@<TRIPOS>MOLECULE
3R207
157   159    1
SMALL
USER_CHARGES


@<TRIPOS>ATOM
      1 CA        -49.4184  -29.0316    9.7408 C.3       0 UNK        -0.1975 
      2 C         -48.8155  -29.3132    8.3756 C.2       0 UNK         0.4852 
      3 O         -47.7761  -29.9690    8.2864 O.2       0 UNK        -0.5216 
      4 N         -49.4500  -28.8117    7.3087 N.am      1 UNK        -0.4461 
      5 CA        -48.9751  -28.8764    5.9228 C.3       1 UNK         0.0864 
      6 C6        -50.0498  -28.4023    4.9013 C.3       14 UNK        -0.0898 
      7 S7        -51.0183  -26.9379    5.4218 S.3       14 UNK        -0.2598 
      8 C8        -52.6292  -27.6930    5.8216 C.3       14 UNK         0.0286 
      9 C9        -53.4554  -26.8510    6.7886 C.ar      14 UNK        -0.0844 
     10 C10       -53.7151  -25.5002    6.5281 C.ar      14 UNK        -0.0881 
     11 C11       -54.5004  -24.7420    7.4036 C.ar      14 UNK        -0.0643 
     12 C12       -55.0461  -25.3505    8.5372 C.ar      14 UNK        -0.0930 
     13 C13       -54.8084  -26.7024    8.8015 C.ar      14 UNK        -0.0827 
     14 C14       -54.0054  -27.4439    7.9302 C.ar      14 UNK        -0.1249 
     15 C15       -55.4620  -27.3664   10.0043 C.3       14 UNK         0.0141 
     16 S16       -54.5911  -26.9823   11.5514 S.3       14 UNK        -0.2313 
     17 C17       -53.2428  -28.2106   11.5404 C.3       14 UNK        -0.0915 
     18 CA        -53.5555  -29.4714   12.3928 C.3       13 UNK         0.0968 
     19 C         -52.4089  -30.5209   12.3115 C.2       13 UNK         0.5732 
     20 N         -51.8809  -31.0337   13.4182 N.am      13 UNK        -0.7310 
     21 O         -52.0005  -30.8960   11.2157 O.2       13 UNK        -0.5035 
     22 N         -53.9408  -29.1370   13.7746 N.am      13 UNK        -0.4233 
     23 C         -54.8828  -29.7899   14.4680 C.2       13 UNK         0.4989 
     24 O         -55.5620  -30.7048   13.9968 O.2       13 UNK        -0.4996 
     25 CA        -55.1160  -29.3485   15.9281 C.3       12 UNK         0.0216 
     26 CB        -55.8760  -30.4062   16.7575 C.3       12 UNK        -0.1964 
     27 N         -53.9002  -28.9286   16.6354 N.am      12 UNK        -0.4276 
     28 C         -52.7807  -29.6430   16.8396 C.2       12 UNK         0.5020 
     29 O         -52.6095  -30.7787   16.3929 O.2       12 UNK        -0.5489 
     30 CA        -51.6545  -28.9716   17.6527 C.3       11 UNK         0.0294 
     31 CB        -50.2612  -29.3731   17.1331 C.3       11 UNK        -0.2019 
     32 N         -51.7713  -27.5141   17.5969 N.am      11 UNK        -0.4493 
     33 C         -52.0981  -26.7036   18.6131 C.2       11 UNK         0.4932 
     34 O         -52.2540  -27.0881   19.7720 O.2       11 UNK        -0.5029 
     35 CA        -52.3158  -25.2107   18.2827 C.3       10 UNK         0.0280 
     36 CB        -51.0654  -24.3944   18.6481 C.3       10 UNK        -0.1976 
     37 N         -52.6571  -24.9570   16.8783 N.am      10 UNK        -0.4242 
     38 C         -53.7555  -25.4119   16.2553 C.2       10 UNK         0.5072 
     39 O         -54.6637  -26.0137   16.8291 O.2       10 UNK        -0.5224 
     40 CA        -53.8067  -25.2619   14.7229 C.3       9 UNK         0.0343 
     41 CB        -54.5898  -24.0024   14.3258 C.3       9 UNK        -0.2003 
     42 N         -52.4812  -25.2431   14.0884 N.am      9 UNK        -0.4272 
     43 C         -51.5698  -26.2247   14.1900 C.2       9 UNK         0.4988 
     44 O         -51.8226  -27.3023   14.7282 O.2       9 UNK        -0.5108 
     45 CA        -50.1398  -25.9805   13.6662 C.3       8 UNK         0.0248 
     46 CB        -49.6505  -27.1323   12.7753 C.3       8 UNK        -0.2001 
     47 N         -49.9700  -24.7117   12.9577 N.am      8 UNK        -0.4140 
     48 C         -49.9204  -23.5064   13.5449 C.2       8 UNK         0.5028 
     49 O         -49.9453  -23.3447   14.7657 O.2       8 UNK        -0.5428 
     50 CA        -49.9035  -22.2723   12.6239 C.3       7 UNK         0.0264 
     51 CB        -48.4788  -21.7123   12.5035 C.3       7 UNK        -0.1988 
     52 N         -50.4484  -22.5369   11.2862 N.am      7 UNK        -0.4454 
     53 C         -51.7301  -22.8640   11.0432 C.2       7 UNK         0.5027 
     54 O         -52.5845  -22.9169   11.9279 O.2       7 UNK        -0.5083 
     55 CA        -52.1341  -23.2150    9.5943 C.3       6 UNK         0.0844 
     56 C56       -53.0059  -22.0860    8.9824 C.3       14 UNK        -0.0967 
     57 S57       -53.2952  -22.2432    7.1823 S.3       14 UNK        -0.2604 
     58 C58       -54.7913  -23.2775    7.1037 C.3       14 UNK         0.0134 
     59 N         -51.0007  -23.5673    8.7383 N.am      6 UNK        -0.4116 
     60 C         -50.1998  -24.6284    8.8859 C.2       5 UNK         0.5034 
     61 O         -50.2622  -25.4098    9.8363 O.2       5 UNK        -0.5045 
     62 CA        -49.1373  -24.8474    7.7942 C.3       5 UNK         0.0224 
     63 CB        -49.2309  -23.8668    6.6020 C.3       5 UNK        -0.1978 
     64 N         -47.7725  -24.8613    8.3235 N.am      5 UNK        -0.4737 
     65 C         -47.1865  -23.9345    9.0935 C.2       4 UNK         0.5027 
     66 O         -47.7519  -22.9063    9.4715 O.2       4 UNK        -0.5211 
     67 CA        -45.7094  -24.1744    9.4730 C.3       4 UNK         0.0297 
     68 CB        -45.3793  -23.6643   10.8915 C.3       4 UNK        -0.1993 
     69 N         -45.2468  -25.5597    9.2911 N.am      4 UNK        -0.4486 
     70 C         -45.6538  -26.6548    9.9484 C.2       3 UNK         0.4961 
     71 O         -46.5344  -26.6559   10.8079 O.2       3 UNK        -0.5105 
     72 CA        -44.9639  -27.9720    9.5490 C.3       3 UNK         0.0299 
     73 CB        -45.3064  -29.1337   10.5001 C.3       3 UNK        -0.1972 
     74 N         -45.2960  -28.3578    8.1742 N.am      3 UNK        -0.4305 
     75 C         -44.7130  -27.8538    7.0750 C.2       2 UNK         0.5006 
     76 O         -43.8453  -26.9794    7.1144 O.2       2 UNK        -0.5106 
     77 CA        -45.1594  -28.3975    5.7037 C.3       2 UNK         0.0296 
     78 CB        -44.2026  -29.5040    5.2304 C.3       2 UNK        -0.2002 
     79 N         -46.5313  -28.9098    5.6970 N.am      2 UNK        -0.4032 
     80 C         -47.6248  -28.1391    5.7769 C.2       1 UNK         0.5000 
     81 O         -47.5859  -26.9081    5.7925 O.2       1 UNK        -0.5238 
     82 H82       -48.7250  -28.4283   10.3272 H         1 UNK         0.0889 
     83 H83       -49.5974  -29.9658   10.2746 H         1 UNK         0.0889 
     84 H84       -50.3641  -28.4916    9.6679 H         1 UNK         0.0889 
     85 H85       -50.2837  -28.2568    7.4400 H         1 UNK         0.3028 
     86 H86       -48.7890  -29.9307    5.7061 H         1 UNK         0.0864 
     87 H87       -49.5955  -28.1862    3.9322 H         1 UNK         0.0720 
     88 H88       -50.7413  -29.2235    4.7068 H         1 UNK         0.0720 
     89 H89       -53.1939  -27.8392    4.8999 H         1 UNK         0.0814 
     90 H90       -52.4631  -28.6860    6.2425 H         1 UNK         0.0814 
     91 H91       -53.3041  -25.0355    5.6423 H         1 UNK         0.1469 
     92 H92       -55.6671  -24.7769    9.2118 H         1 UNK         0.1381 
     93 H93       -53.8289  -28.4917    8.1310 H         1 UNK         0.1206 
     94 H94       -56.4921  -27.0182   10.0904 H         1 UNK         0.0813 
     95 H95       -55.5204  -28.4478    9.8720 H         1 UNK         0.0813 
     96 H96       -53.0226  -28.4852   10.5080 H         1 UNK         0.0638 
     97 H97       -52.3480  -27.7187   11.9113 H         1 UNK         0.0638 
     98 H98       -54.4056  -29.9543   11.9079 H         1 UNK         0.0568 
     99 H99       -52.2275  -30.7800   14.3359 H         1 UNK         0.3450 
    100 H100      -51.1467  -31.7178   13.3351 H         1 UNK         0.3450 
    101 H101      -53.3652  -28.4397   14.2353 H         1 UNK         0.2987 
    102 H102      -55.7499  -28.4623   15.8692 H         1 UNK         0.0766 
    103 H103      -56.0602  -30.0563   17.7732 H         1 UNK         0.0798 
    104 H104      -56.8472  -30.6313   16.3148 H         1 UNK         0.0798 
    105 H105      -55.3212  -31.3432   16.8207 H         1 UNK         0.0798 
    106 H106      -53.9344  -27.9853   17.0069 H         1 UNK         0.3198 
    107 H107      -51.7528  -29.3239   18.6815 H         1 UNK         0.0843 
    108 H108      -50.1032  -30.4488   17.2208 H         1 UNK         0.0831 
    109 H109      -49.4700  -28.8843   17.7014 H         1 UNK         0.0831 
    110 H110      -50.1328  -29.1086   16.0824 H         1 UNK         0.0831 
    111 H111      -51.6991  -27.1273   16.6605 H         1 UNK         0.3133 
    112 H112      -53.1483  -24.8580   18.8955 H         1 UNK         0.0566 
    113 H113      -50.2033  -24.6838   18.0450 H         1 UNK         0.0814 
    114 H114      -50.7952  -24.5401   19.6951 H         1 UNK         0.0814 
    115 H115      -51.2319  -23.3264   18.5047 H         1 UNK         0.0814 
    116 H116      -51.9653  -24.4689   16.3250 H         1 UNK         0.3091 
    117 H117      -54.3441  -26.1306   14.3403 H         1 UNK         0.0702 
    118 H118      -54.7535  -23.9661   13.2485 H         1 UNK         0.0785 
    119 H119      -54.0657  -23.0912   14.6168 H         1 UNK         0.0785 
    120 H120      -55.5718  -23.9843   14.8007 H         1 UNK         0.0785 
    121 H121      -52.2405  -24.4020   13.5785 H         1 UNK         0.2998 
    122 H122      -49.4977  -25.9613   14.5491 H         1 UNK         0.0697 
    123 H123      -50.1774  -27.1515   11.8236 H         1 UNK         0.0825 
    124 H124      -49.7938  -28.1026   13.2531 H         1 UNK         0.0825 
    125 H125      -48.5866  -27.0349   12.5599 H         1 UNK         0.0825 
    126 H126      -49.9662  -24.7616   11.9447 H         1 UNK         0.3029 
    127 H127      -50.5305  -21.5097   13.0912 H         1 UNK         0.0897 
    128 H128      -48.4455  -20.8347   11.8576 H         1 UNK         0.0792 
    129 H129      -48.0947  -21.4131   13.4796 H         1 UNK         0.0792 
    130 H130      -47.7916  -22.4546   12.0993 H         1 UNK         0.0792 
    131 H131      -49.7862  -22.5406   10.5183 H         1 UNK         0.3086 
    132 H132      -52.7521  -24.1119    9.6632 H         1 UNK         0.0583 
    133 H133      -53.9666  -22.0306    9.4981 H         1 UNK         0.1020 
    134 H134      -52.5306  -21.1153    9.1388 H         1 UNK         0.1020 
    135 H135      -55.5477  -22.8767    7.7803 H         1 UNK         0.0694 
    136 H136      -55.2122  -23.2035    6.1000 H         1 UNK         0.0694 
    137 H137      -50.8760  -22.9843    7.9238 H         1 UNK         0.2989 
    138 H138      -49.3210  -25.8514    7.4177 H         1 UNK         0.1055 
    139 H139      -50.2190  -23.8945    6.1399 H         1 UNK         0.0806 
    140 H140      -48.5166  -24.1392    5.8246 H         1 UNK         0.0806 
    141 H141      -49.0205  -22.8374    6.8950 H         1 UNK         0.0806 
    142 H142      -47.2241  -25.6716    8.0727 H         1 UNK         0.3061 
    143 H143      -45.1280  -23.5760    8.7703 H         1 UNK         0.0734 
    144 H144      -45.5661  -22.5931   10.9752 H         1 UNK         0.0832 
    145 H145      -45.9849  -24.1603   11.6505 H         1 UNK         0.0832 
    146 H146      -44.3306  -23.8272   11.1389 H         1 UNK         0.0832 
    147 H147      -44.5554  -25.7033    8.5602 H         1 UNK         0.3156 
    148 H148      -43.8865  -27.8073    9.6188 H         1 UNK         0.0589 
    149 H149      -46.3727  -29.3587   10.5027 H         1 UNK         0.0808 
    150 H150      -44.7737  -30.0434   10.2236 H         1 UNK         0.0808 
    151 H151      -45.0245  -28.8920   11.5257 H         1 UNK         0.0808 
    152 H152      -46.0480  -29.0342    8.0704 H         1 UNK         0.3098 
    153 H153      -45.1015  -27.5716    4.9913 H         1 UNK         0.0720 
    154 H154      -44.4548  -29.8443    4.2256 H         1 UNK         0.0791 
    155 H155      -43.1737  -29.1423    5.1988 H         1 UNK         0.0791 
    156 H156      -44.2235  -30.3692    5.8946 H         1 UNK         0.0791 
    157 H157      -46.6407  -29.9138    5.7352 H         1 UNK         0.3028 
@<TRIPOS>BOND
     1    1    2 1    
     2    1   82 1    
     3    1   83 1    
     4    1   84 1    
     5    2    3 2    
     6    2    4 am   BACKBONE|DICT|INTERRES
     7    4    5 1    
     8    4   85 1    
     9    5    6 1    
    10    5   80 1    
    11    5   86 1    
    12    6    7 1    
    13    6   87 1    
    14    6   88 1    
    15    7    8 1    
    16    8    9 1    
    17    8   89 1    
    18    8   90 1    
    19    9   10 ar   
    20    9   14 ar   
    21   10   11 ar   
    22   10   91 1    
    23   11   12 ar   
    24   11   58 1    
    25   12   13 ar   
    26   12   92 1    
    27   13   14 ar   
    28   13   15 1    
    29   14   93 1    
    30   15   16 1    
    31   15   94 1    
    32   15   95 1    
    33   16   17 1    
    34   17   18 1    
    35   17   96 1    
    36   17   97 1    
    37   18   19 1    
    38   18   22 1    
    39   18   98 1    
    40   19   20 am   BACKBONE|DICT|INTERRES
    41   19   21 2    
    42   20   99 1    
    43   20  100 1    
    44   22   23 am   BACKBONE|DICT|INTERRES
    45   22  101 1    
    46   23   24 2    
    47   23   25 1    
    48   25   26 1    
    49   25   27 1    
    50   25  102 1    
    51   26  103 1    
    52   26  104 1    
    53   26  105 1    
    54   27   28 am   BACKBONE|DICT|INTERRES
    55   27  106 1    
    56   28   29 2    
    57   28   30 1    
    58   30   31 1    
    59   30   32 1    
    60   30  107 1    
    61   31  108 1    
    62   31  109 1    
    63   31  110 1    
    64   32   33 am   BACKBONE|DICT|INTERRES
    65   32  111 1    
    66   33   34 2    
    67   33   35 1    
    68   35   36 1    
    69   35   37 1    
    70   35  112 1    
    71   36  113 1    
    72   36  114 1    
    73   36  115 1    
    74   37   38 am   BACKBONE|DICT|INTERRES
    75   37  116 1    
    76   38   39 2    
    77   38   40 1    
    78   40   41 1    
    79   40   42 1    
    80   40  117 1    
    81   41  118 1    
    82   41  119 1    
    83   41  120 1    
    84   42   43 am   BACKBONE|DICT|INTERRES
    85   42  121 1    
    86   43   44 2    
    87   43   45 1    
    88   45   46 1    
    89   45   47 1    
    90   45  122 1    
    91   46  123 1    
    92   46  124 1    
    93   46  125 1    
    94   47   48 am   BACKBONE|DICT|INTERRES
    95   47  126 1    
    96   48   49 2    
    97   48   50 1    
    98   50   51 1    
    99   50   52 1    
   100   50  127 1    
   101   51  128 1    
   102   51  129 1    
   103   51  130 1    
   104   52   53 am   BACKBONE|DICT|INTERRES
   105   52  131 1    
   106   53   54 2    
   107   53   55 1    
   108   55   56 1    
   109   55   59 1    
   110   55  132 1    
   111   56   57 1    
   112   56  133 1    
   113   56  134 1    
   114   57   58 1    
   115   58  135 1    
   116   58  136 1    
   117   59   60 am   BACKBONE|DICT|INTERRES
   118   59  137 1    
   119   60   61 2    
   120   60   62 1    
   121   62   63 1    
   122   62   64 1    
   123   62  138 1    
   124   63  139 1    
   125   63  140 1    
   126   63  141 1    
   127   64   65 am   BACKBONE|DICT|INTERRES
   128   64  142 1    
   129   65   66 2    
   130   65   67 1    
   131   67   68 1    
   132   67   69 1    
   133   67  143 1    
   134   68  144 1    
   135   68  145 1    
   136   68  146 1    
   137   69   70 am   BACKBONE|DICT|INTERRES
   138   69  147 1    
   139   70   71 2    
   140   70   72 1    
   141   72   73 1    
   142   72   74 1    
   143   72  148 1    
   144   73  149 1    
   145   73  150 1    
   146   73  151 1    
   147   74   75 am   BACKBONE|DICT|INTERRES
   148   74  152 1    
   149   75   76 2    
   150   75   77 1    
   151   77   78 1    
   152   77   79 1    
   153   77  153 1    
   154   78  154 1    
   155   78  155 1    
   156   78  156 1    
   157   79   80 am   BACKBONE|DICT|INTERRES
   158   79  157 1    
   159   80   81 2    
@<TRIPOS>SUBSTRUCTURE
     1 UNK         1 GROUP             0       ****    0 ROOT    
