@<TRIPOS>MOLECULE
3R207
157   159    1
SMALL
USER_CHARGES


@<TRIPOS>ATOM
      1 CA        -44.3945  -29.0908    7.0900 C.3       0 UNK        -0.1975 
      2 C         -45.6503  -28.8305    6.2725 C.2       0 UNK         0.4852 
      3 O         -45.5656  -28.2715    5.1775 O.2       0 UNK        -0.5216 
      4 N         -46.8213  -29.2243    6.7906 N.am      1 UNK        -0.4461 
      5 CA        -48.1270  -28.9517    6.1850 C.3       1 UNK         0.0864 
      6 C6        -49.2774  -29.7547    6.8467 C.3       14 UNK        -0.0898 
      7 S7        -49.3462  -29.6725    8.6734 S.3       14 UNK        -0.2598 
      8 C8        -51.1253  -29.9485    8.9751 C.3       14 UNK         0.0286 
      9 C9        -51.8884  -28.6595    9.2620 C.ar      14 UNK        -0.0844 
     10 C10       -51.8310  -27.5759    8.3792 C.ar      14 UNK        -0.0881 
     11 C11       -52.5217  -26.3931    8.6558 C.ar      14 UNK        -0.0643 
     12 C12       -53.2909  -26.3007    9.8187 C.ar      14 UNK        -0.0930 
     13 C13       -53.3669  -27.3788   10.7045 C.ar      14 UNK        -0.0827 
     14 C14       -52.6677  -28.5553   10.4189 C.ar      14 UNK        -0.1249 
     15 C15       -54.1722  -27.2566   11.9896 C.3       14 UNK         0.0141 
     16 S16       -55.9571  -27.0938   11.6826 S.3       14 UNK        -0.2313 
     17 C17       -56.4060  -28.7716   11.1098 C.3       14 UNK        -0.0915 
     18 CA        -56.9539  -29.7098   12.2242 C.3       13 UNK         0.0968 
     19 C         -55.8262  -30.4574   12.9987 C.2       13 UNK         0.5732 
     20 N         -55.7773  -30.4312   14.3254 N.am      13 UNK        -0.7310 
     21 O         -54.9842  -31.1020   12.3783 O.2       13 UNK        -0.5035 
     22 N         -57.9340  -29.0172   13.0702 N.am      13 UNK        -0.4233 
     23 C         -58.9194  -29.5878   13.7702 C.2       13 UNK         0.4989 
     24 O         -59.2058  -30.7846   13.7050 O.2       13 UNK        -0.4996 
     25 CA        -59.6992  -28.6438   14.7104 C.3       12 UNK         0.0216 
     26 CB        -60.5493  -29.4026   15.7526 C.3       12 UNK        -0.1964 
     27 N         -58.8362  -27.6458   15.3668 N.am      12 UNK        -0.4276 
     28 C         -57.7800  -27.8962   16.1561 C.2       12 UNK         0.5020 
     29 O         -57.4040  -29.0320   16.4591 O.2       12 UNK        -0.5489 
     30 CA        -57.0291  -26.6638   16.6984 C.3       11 UNK         0.0294 
     31 CB        -57.8265  -26.0035   17.8363 C.3       11 UNK        -0.2019 
     32 N         -55.6941  -27.0061   17.1978 N.am      11 UNK        -0.4493 
     33 C         -54.6683  -27.4030   16.4336 C.2       11 UNK         0.4932 
     34 O         -54.6963  -27.4116   15.2019 O.2       11 UNK        -0.5029 
     35 CA        -53.4271  -27.9075   17.1944 C.3       10 UNK         0.0280 
     36 CB        -53.7378  -29.2290   17.9212 C.3       10 UNK        -0.1976 
     37 N         -52.2762  -28.1270   16.3165 N.am      10 UNK        -0.4242 
     38 C         -51.5186  -27.1666   15.7735 C.2       10 UNK         0.5072 
     39 O         -51.6827  -25.9599   15.9726 O.2       10 UNK        -0.5224 
     40 CA        -50.3983  -27.6636   14.8393 C.3       9 UNK         0.0343 
     41 CB        -50.9486  -27.9390   13.4314 C.3       9 UNK        -0.2003 
     42 N         -49.2813  -26.7274   14.7232 N.am      9 UNK        -0.4272 
     43 C         -48.4531  -26.3662   15.7124 C.2       9 UNK         0.4988 
     44 O         -48.5064  -26.8188   16.8571 O.2       9 UNK        -0.5108 
     45 CA        -47.3649  -25.3391   15.3605 C.3       8 UNK         0.0248 
     46 CB        -46.1064  -26.0461   14.8295 C.3       8 UNK        -0.2001 
     47 N         -47.8300  -24.3661   14.3695 N.am      8 UNK        -0.4140 
     48 C         -48.5050  -23.2460   14.6631 C.2       8 UNK         0.5028 
     49 O         -48.7643  -22.8852   15.8120 O.2       8 UNK        -0.5428 
     50 CA        -48.9521  -22.3601   13.4864 C.3       7 UNK         0.0264 
     51 CB        -47.9509  -21.2137   13.2689 C.3       7 UNK        -0.1988 
     52 N         -49.1080  -23.1034   12.2338 N.am      7 UNK        -0.4454 
     53 C         -50.1816  -23.8516   11.9294 C.2       7 UNK         0.5027 
     54 O         -51.1670  -23.9568   12.6593 O.2       7 UNK        -0.5083 
     55 CA        -50.1590  -24.6074   10.5809 C.3       6 UNK         0.0844 
     56 C56       -50.8092  -23.7072    9.4956 C.3       14 UNK        -0.0967 
     57 S57       -50.7815  -24.4131    7.8151 S.3       14 UNK        -0.2604 
     58 C58       -52.4141  -25.2100    7.7070 C.3       14 UNK         0.0134 
     59 N         -48.8213  -25.0769   10.2006 N.am      6 UNK        -0.4116 
     60 C         -47.9913  -25.8030   10.9635 C.2       5 UNK         0.5034 
     61 O         -48.2997  -26.2623   12.0623 O.2       5 UNK        -0.5045 
     62 CA        -46.5362  -25.9600   10.4862 C.3       5 UNK         0.0224 
     63 CB        -46.2822  -27.3727    9.9429 C.3       5 UNK        -0.1978 
     64 N         -46.0973  -24.9590    9.5048 N.am      5 UNK        -0.4737 
     65 C         -46.0804  -23.6325    9.6956 C.2       4 UNK         0.5027 
     66 O         -46.5012  -23.0974   10.7229 O.2       4 UNK        -0.5211 
     67 CA        -45.5466  -22.7337    8.5637 C.3       4 UNK         0.0297 
     68 CB        -44.1572  -22.1741    8.9261 C.3       4 UNK        -0.1993 
     69 N         -45.5438  -23.3193    7.2127 N.am      4 UNK        -0.4486 
     70 C         -44.8136  -24.3317    6.7260 C.2       3 UNK         0.4961 
     71 O         -44.0719  -25.0384    7.4094 O.2       3 UNK        -0.5105 
     72 CA        -44.9798  -24.6132    5.2223 C.3       3 UNK         0.0299 
     73 CB        -43.8264  -25.4577    4.6501 C.3       3 UNK        -0.1972 
     74 N         -46.2581  -25.2744    4.9503 N.am      3 UNK        -0.4305 
     75 C         -47.4434  -24.6442    4.9023 C.2       2 UNK         0.5006 
     76 O         -47.5635  -23.4281    5.0647 O.2       2 UNK        -0.5106 
     77 CA        -48.7083  -25.4805    4.6199 C.3       2 UNK         0.0296 
     78 CB        -49.1547  -25.2994    3.1599 C.3       2 UNK        -0.2002 
     79 N         -48.5630  -26.9103    4.9020 N.am      2 UNK        -0.4032 
     80 C         -48.3925  -27.4318    6.1245 C.2       1 UNK         0.5000 
     81 O         -48.3818  -26.7614    7.1575 O.2       1 UNK        -0.5238 
     82 H82       -43.6888  -29.6885    6.5140 H         1 UNK         0.0889 
     83 H83       -44.6140  -29.6215    8.0162 H         1 UNK         0.0889 
     84 H84       -43.9145  -28.1457    7.3444 H         1 UNK         0.0889 
     85 H85       -46.8548  -29.6566    7.7029 H         1 UNK         0.3028 
     86 H86       -48.0632  -29.3099    5.1548 H         1 UNK         0.0864 
     87 H87       -49.1683  -30.8079    6.5835 H         1 UNK         0.0720 
     88 H88       -50.2366  -29.4530    6.4231 H         1 UNK         0.0720 
     89 H89       -51.5827  -30.4603    8.1275 H         1 UNK         0.0814 
     90 H90       -51.2138  -30.6329    9.8201 H         1 UNK         0.0814 
     91 H91       -51.2242  -27.6350    7.4876 H         1 UNK         0.1469 
     92 H92       -53.8219  -25.3862   10.0448 H         1 UNK         0.1381 
     93 H93       -52.7239  -29.3885   11.1065 H         1 UNK         0.1206 
     94 H94       -53.8298  -26.3799   12.5416 H         1 UNK         0.0813 
     95 H95       -53.9993  -28.1109   12.6447 H         1 UNK         0.0813 
     96 H96       -55.5679  -29.2228   10.5761 H         1 UNK         0.0638 
     97 H97       -57.1821  -28.6404   10.3547 H         1 UNK         0.0638 
     98 H98       -57.4929  -30.5079   11.7105 H         1 UNK         0.0568 
     99 H99       -55.0429  -30.9369   14.7912 H         1 UNK         0.3450 
    100 H100      -56.4482  -29.9053   14.8737 H         1 UNK         0.3450 
    101 H101      -57.7573  -28.0316   13.1976 H         1 UNK         0.2987 
    102 H102      -60.3857  -28.0853   14.0722 H         1 UNK         0.0766 
    103 H103      -61.2788  -30.0512   15.2658 H         1 UNK         0.0798 
    104 H104      -61.1046  -28.7139   16.3891 H         1 UNK         0.0798 
    105 H105      -59.9342  -30.0322   16.3965 H         1 UNK         0.0798 
    106 H106      -59.0686  -26.6798   15.1771 H         1 UNK         0.3198 
    107 H107      -56.9125  -25.9465   15.8828 H         1 UNK         0.0843 
    108 H108      -57.9767  -26.6873   18.6729 H         1 UNK         0.0831 
    109 H109      -58.8133  -25.6861   17.4965 H         1 UNK         0.0831 
    110 H110      -57.3186  -25.1161   18.2147 H         1 UNK         0.0831 
    111 H111      -55.5957  -27.0684   18.2005 H         1 UNK         0.3133 
    112 H112      -53.1541  -27.1545   17.9368 H         1 UNK         0.0566 
    113 H113      -52.8695  -29.5965   18.4685 H         1 UNK         0.0814 
    114 H114      -54.0506  -30.0073   17.2237 H         1 UNK         0.0814 
    115 H115      -54.5424  -29.1058   18.6471 H         1 UNK         0.0814 
    116 H116      -52.0935  -29.0850   16.0567 H         1 UNK         0.3091 
    117 H117      -50.0009  -28.5958   15.2461 H         1 UNK         0.0702 
    118 H118      -50.1800  -28.3458   12.7734 H         1 UNK         0.0785 
    119 H119      -51.3314  -27.0280   12.9690 H         1 UNK         0.0785 
    120 H120      -51.7635  -28.6626   13.4613 H         1 UNK         0.0785 
    121 H121      -49.1093  -26.3530   13.7953 H         1 UNK         0.2998 
    122 H122      -47.0922  -24.8128   16.2779 H         1 UNK         0.0697 
    123 H123      -46.3111  -26.6160   13.9225 H         1 UNK         0.0825 
    124 H124      -45.7131  -26.7447   15.5692 H         1 UNK         0.0825 
    125 H125      -45.3139  -25.3317   14.6059 H         1 UNK         0.0825 
    126 H126      -47.7067  -24.6144   13.3973 H         1 UNK         0.3029 
    127 H127      -49.9157  -21.9211   13.7551 H         1 UNK         0.0897 
    128 H128      -46.9603  -21.5868   13.0056 H         1 UNK         0.0792 
    129 H129      -47.8432  -20.6130   14.1731 H         1 UNK         0.0792 
    130 H130      -48.2795  -20.5449   12.4732 H         1 UNK         0.0792 
    131 H131      -48.3212  -23.0760   11.5899 H         1 UNK         0.3086 
    132 H132      -50.7681  -25.5030   10.7082 H         1 UNK         0.0583 
    133 H133      -51.8418  -23.4747    9.7638 H         1 UNK         0.1020 
    134 H134      -50.2940  -22.7457    9.4427 H         1 UNK         0.1020 
    135 H135      -53.1949  -24.4741    7.9053 H         1 UNK         0.0694 
    136 H136      -52.5699  -25.5544    6.6836 H         1 UNK         0.0694 
    137 H137      -48.4983  -24.7992    9.2848 H         1 UNK         0.2989 
    138 H138      -45.9079  -25.8269   11.3694 H         1 UNK         0.1055 
    139 H139      -46.8809  -27.5715    9.0566 H         1 UNK         0.0806 
    140 H140      -46.5439  -28.1289   10.6845 H         1 UNK         0.0806 
    141 H141      -45.2333  -27.5186    9.6851 H         1 UNK         0.0806 
    142 H142      -45.6769  -25.3051    8.6499 H         1 UNK         0.3061 
    143 H143      -46.2337  -21.8877    8.5088 H         1 UNK         0.0734 
    144 H144      -43.4116  -22.9643    9.0195 H         1 UNK         0.0832 
    145 H145      -43.8052  -21.4663    8.1756 H         1 UNK         0.0832 
    146 H146      -44.1871  -21.6453    9.8799 H         1 UNK         0.0832 
    147 H147      -46.2038  -22.9025    6.5624 H         1 UNK         0.3156 
    148 H148      -44.9626  -23.6536    4.7008 H         1 UNK         0.0589 
    149 H149      -43.9582  -25.6417    3.5838 H         1 UNK         0.0808 
    150 H150      -42.8728  -24.9434    4.7752 H         1 UNK         0.0808 
    151 H151      -43.7372  -26.4229    5.1482 H         1 UNK         0.0808 
    152 H152      -46.2286  -26.2848    4.8611 H         1 UNK         0.3098 
    153 H153      -49.4993  -25.0934    5.2639 H         1 UNK         0.0720 
    154 H154      -48.4123  -25.6840    2.4593 H         1 UNK         0.0791 
    155 H155      -49.3070  -24.2445    2.9264 H         1 UNK         0.0791 
    156 H156      -50.0984  -25.8100    2.9664 H         1 UNK         0.0791 
    157 H157      -48.5286  -27.5245    4.1009 H         1 UNK         0.3028 
@<TRIPOS>BOND
     1    1    2 1    
     2    1   82 1    
     3    1   83 1    
     4    1   84 1    
     5    2    3 2    
     6    2    4 am   BACKBONE|DICT|INTERRES
     7    4    5 1    
     8    4   85 1    
     9    5    6 1    
    10    5   80 1    
    11    5   86 1    
    12    6    7 1    
    13    6   87 1    
    14    6   88 1    
    15    7    8 1    
    16    8    9 1    
    17    8   89 1    
    18    8   90 1    
    19    9   10 ar   
    20    9   14 ar   
    21   10   11 ar   
    22   10   91 1    
    23   11   12 ar   
    24   11   58 1    
    25   12   13 ar   
    26   12   92 1    
    27   13   14 ar   
    28   13   15 1    
    29   14   93 1    
    30   15   16 1    
    31   15   94 1    
    32   15   95 1    
    33   16   17 1    
    34   17   18 1    
    35   17   96 1    
    36   17   97 1    
    37   18   19 1    
    38   18   22 1    
    39   18   98 1    
    40   19   20 am   BACKBONE|DICT|INTERRES
    41   19   21 2    
    42   20   99 1    
    43   20  100 1    
    44   22   23 am   BACKBONE|DICT|INTERRES
    45   22  101 1    
    46   23   24 2    
    47   23   25 1    
    48   25   26 1    
    49   25   27 1    
    50   25  102 1    
    51   26  103 1    
    52   26  104 1    
    53   26  105 1    
    54   27   28 am   BACKBONE|DICT|INTERRES
    55   27  106 1    
    56   28   29 2    
    57   28   30 1    
    58   30   31 1    
    59   30   32 1    
    60   30  107 1    
    61   31  108 1    
    62   31  109 1    
    63   31  110 1    
    64   32   33 am   BACKBONE|DICT|INTERRES
    65   32  111 1    
    66   33   34 2    
    67   33   35 1    
    68   35   36 1    
    69   35   37 1    
    70   35  112 1    
    71   36  113 1    
    72   36  114 1    
    73   36  115 1    
    74   37   38 am   BACKBONE|DICT|INTERRES
    75   37  116 1    
    76   38   39 2    
    77   38   40 1    
    78   40   41 1    
    79   40   42 1    
    80   40  117 1    
    81   41  118 1    
    82   41  119 1    
    83   41  120 1    
    84   42   43 am   BACKBONE|DICT|INTERRES
    85   42  121 1    
    86   43   44 2    
    87   43   45 1    
    88   45   46 1    
    89   45   47 1    
    90   45  122 1    
    91   46  123 1    
    92   46  124 1    
    93   46  125 1    
    94   47   48 am   BACKBONE|DICT|INTERRES
    95   47  126 1    
    96   48   49 2    
    97   48   50 1    
    98   50   51 1    
    99   50   52 1    
   100   50  127 1    
   101   51  128 1    
   102   51  129 1    
   103   51  130 1    
   104   52   53 am   BACKBONE|DICT|INTERRES
   105   52  131 1    
   106   53   54 2    
   107   53   55 1    
   108   55   56 1    
   109   55   59 1    
   110   55  132 1    
   111   56   57 1    
   112   56  133 1    
   113   56  134 1    
   114   57   58 1    
   115   58  135 1    
   116   58  136 1    
   117   59   60 am   BACKBONE|DICT|INTERRES
   118   59  137 1    
   119   60   61 2    
   120   60   62 1    
   121   62   63 1    
   122   62   64 1    
   123   62  138 1    
   124   63  139 1    
   125   63  140 1    
   126   63  141 1    
   127   64   65 am   BACKBONE|DICT|INTERRES
   128   64  142 1    
   129   65   66 2    
   130   65   67 1    
   131   67   68 1    
   132   67   69 1    
   133   67  143 1    
   134   68  144 1    
   135   68  145 1    
   136   68  146 1    
   137   69   70 am   BACKBONE|DICT|INTERRES
   138   69  147 1    
   139   70   71 2    
   140   70   72 1    
   141   72   73 1    
   142   72   74 1    
   143   72  148 1    
   144   73  149 1    
   145   73  150 1    
   146   73  151 1    
   147   74   75 am   BACKBONE|DICT|INTERRES
   148   74  152 1    
   149   75   76 2    
   150   75   77 1    
   151   77   78 1    
   152   77   79 1    
   153   77  153 1    
   154   78  154 1    
   155   78  155 1    
   156   78  156 1    
   157   79   80 am   BACKBONE|DICT|INTERRES
   158   79  157 1    
   159   80   81 2    
@<TRIPOS>SUBSTRUCTURE
     1 UNK         1 GROUP             0       ****    0 ROOT    
