@<TRIPOS>MOLECULE
3R207
157   159    1
SMALL
USER_CHARGES


@<TRIPOS>ATOM
      1 CA        -48.7637  -29.0276    1.1073 C.3       0 UNK        -0.1975 
      2 C         -48.6997  -29.3611    2.5905 C.2       0 UNK         0.4852 
      3 O         -47.7769  -30.0551    3.0178 O.2       0 UNK        -0.5216 
      4 N         -49.6690  -28.8616    3.3725 N.am      1 UNK        -0.4461 
      5 CA        -49.8347  -29.0829    4.8188 C.3       1 UNK         0.0864 
      6 C6        -50.1592  -30.5640    5.1788 C.3       14 UNK        -0.0898 
      7 S7        -51.8328  -31.0581    4.6393 S.3       14 UNK        -0.2598 
      8 C8        -52.6300  -31.4999    6.2250 C.3       14 UNK         0.0286 
      9 C9        -53.2958  -30.3156    6.9214 C.ar      14 UNK        -0.0844 
     10 C10       -52.5521  -29.1966    7.3091 C.ar      14 UNK        -0.0881 
     11 C11       -53.1611  -28.1168    7.9535 C.ar      14 UNK        -0.0643 
     12 C12       -54.5266  -28.1746    8.2463 C.ar      14 UNK        -0.0930 
     13 C13       -55.2788  -29.3005    7.8969 C.ar      14 UNK        -0.0827 
     14 C14       -54.6618  -30.3581    7.2207 C.ar      14 UNK        -0.1249 
     15 C15       -56.7594  -29.3783    8.2412 C.3       14 UNK         0.0141 
     16 S16       -57.0643  -30.3714    9.7402 S.3       14 UNK        -0.2313 
     17 C17       -56.5672  -29.2262   11.0717 C.3       14 UNK        -0.0915 
     18 CA        -55.5372  -29.8281   12.0660 C.3       13 UNK         0.0968 
     19 C         -54.1100  -29.9105   11.4507 C.2       13 UNK         0.5732 
     20 N         -53.2762  -28.8917   11.6243 N.am      13 UNK        -0.7310 
     21 O         -53.7502  -30.9156   10.8436 O.2       13 UNK        -0.5035 
     22 N         -55.5901  -29.1073   13.3470 N.am      13 UNK        -0.4233 
     23 C         -54.9748  -29.4695   14.4786 C.2       13 UNK         0.4989 
     24 O         -54.3298  -30.5123   14.6019 O.2       13 UNK        -0.4996 
     25 CA        -55.1009  -28.4895   15.6655 C.3       12 UNK         0.0216 
     26 CB        -54.4131  -29.0141   16.9395 C.3       12 UNK        -0.1964 
     27 N         -54.5682  -27.1576   15.3529 N.am      12 UNK        -0.4276 
     28 C         -55.1645  -26.2431   14.5736 C.2       12 UNK         0.5020 
     29 O         -56.2547  -26.4353   14.0303 O.2       12 UNK        -0.5489 
     30 CA        -54.4105  -24.9261   14.3062 C.3       11 UNK         0.0294 
     31 CB        -55.3594  -23.7341   14.0592 C.3       11 UNK        -0.2019 
     32 N         -53.3938  -24.5975   15.3115 N.am      11 UNK        -0.4493 
     33 C         -53.5816  -24.2821   16.6015 C.2       11 UNK         0.4932 
     34 O         -54.6870  -24.2358   17.1435 O.2       11 UNK        -0.5029 
     35 CA        -52.3109  -23.9597   17.4144 C.3       10 UNK         0.0280 
     36 CB        -52.5453  -23.9950   18.9399 C.3       10 UNK        -0.1976 
     37 N         -51.1538  -24.7855   17.0442 N.am      10 UNK        -0.4242 
     38 C         -51.0493  -26.1216   17.1357 C.2       10 UNK         0.5072 
     39 O         -51.9628  -26.8412   17.5403 O.2       10 UNK        -0.5224 
     40 CA        -49.7316  -26.7902   16.6867 C.3       9 UNK         0.0343 
     41 CB        -50.0096  -27.9305   15.6904 C.3       9 UNK        -0.2003 
     42 N         -48.7671  -25.8646   16.0867 N.am      9 UNK        -0.4272 
     43 C         -47.9517  -25.0400   16.7581 C.2       9 UNK         0.4988 
     44 O         -47.8624  -25.0156   17.9857 O.2       9 UNK        -0.5108 
     45 CA        -47.1364  -24.0351   15.9202 C.3       8 UNK         0.0248 
     46 CB        -45.7976  -24.6490   15.4817 C.3       8 UNK        -0.2001 
     47 N         -47.8629  -23.5334   14.7462 N.am      8 UNK        -0.4140 
     48 C         -49.0109  -22.8397   14.8074 C.2       8 UNK         0.5028 
     49 O         -49.5511  -22.5051   15.8620 O.2       8 UNK        -0.5428 
     50 CA        -49.7156  -22.5269   13.4773 C.3       7 UNK         0.0264 
     51 CB        -49.0500  -21.3399   12.7636 C.3       7 UNK        -0.1988 
     52 N         -49.7635  -23.6847   12.5820 N.am      7 UNK        -0.4454 
     53 C         -50.3861  -24.8401   12.8587 C.2       7 UNK         0.5027 
     54 O         -51.0500  -25.0286   13.8767 O.2       7 UNK        -0.5083 
     55 CA        -50.1988  -25.9979   11.8611 C.3       6 UNK         0.0844 
     56 C56       -51.1965  -25.8834   10.6865 C.3       14 UNK        -0.0967 
     57 S57       -51.0537  -27.2936    9.5439 S.3       14 UNK        -0.2604 
     58 C58       -52.3412  -26.8895    8.3245 C.3       14 UNK         0.0134 
     59 N         -48.8044  -26.1038   11.4232 N.am      6 UNK        -0.4116 
     60 C         -47.7757  -26.4112   12.2252 C.2       5 UNK         0.5034 
     61 O         -47.8950  -26.6956   13.4157 O.2       5 UNK        -0.5045 
     62 CA        -46.3720  -26.3346   11.6090 C.3       5 UNK         0.0224 
     63 CB        -46.0062  -27.6554   10.9136 C.3       5 UNK        -0.1978 
     64 N         -46.2604  -25.2207   10.6647 N.am      5 UNK        -0.4737 
     65 C         -46.2171  -23.9321   11.0352 C.2       4 UNK         0.5027 
     66 O         -46.2072  -23.5639   12.2103 O.2       4 UNK        -0.5211 
     67 CA        -46.2375  -22.8773    9.9124 C.3       4 UNK         0.0297 
     68 CB        -44.8126  -22.6010    9.4085 C.3       4 UNK        -0.1993 
     69 N         -47.0933  -23.2550    8.7828 N.am      4 UNK        -0.4486 
     70 C         -48.4169  -23.4469    8.8687 C.2       3 UNK         0.4961 
     71 O         -49.0646  -23.2321    9.8918 O.2       3 UNK        -0.5105 
     72 CA        -49.1500  -24.0114    7.6366 C.3       3 UNK         0.0299 
     73 CB        -49.8430  -22.8772    6.8659 C.3       3 UNK        -0.1972 
     74 N         -48.3406  -24.8079    6.7041 N.am      3 UNK        -0.4305 
     75 C         -47.5759  -25.8650    7.0156 C.2       2 UNK         0.5006 
     76 O         -47.3549  -26.2373    8.1686 O.2       2 UNK        -0.5106 
     77 CA        -46.9823  -26.6316    5.8203 C.3       2 UNK         0.0296 
     78 CB        -45.7433  -27.4706    6.2028 C.3       2 UNK        -0.2002 
     79 N         -48.0089  -27.4507    5.1595 N.am      2 UNK        -0.4032 
     80 C         -48.6932  -28.4847    5.6808 C.2       1 UNK         0.5000 
     81 O         -48.4823  -28.9457    6.8035 O.2       1 UNK        -0.5238 
     82 H82       -47.8616  -28.4981    0.8020 H         1 UNK         0.0889 
     83 H83       -49.6228  -28.4021    0.8651 H         1 UNK         0.0889 
     84 H84       -48.8362  -29.9433    0.5210 H         1 UNK         0.0889 
     85 H85       -50.3957  -28.3042    2.9442 H         1 UNK         0.3028 
     86 H86       -50.7040  -28.4830    5.0906 H         1 UNK         0.0864 
     87 H87       -50.0831  -30.7457    6.2510 H         1 UNK         0.0720 
     88 H88       -49.4342  -31.2418    4.7271 H         1 UNK         0.0720 
     89 H89       -51.9092  -31.9628    6.9001 H         1 UNK         0.0814 
     90 H90       -53.3716  -32.2720    6.0147 H         1 UNK         0.0814 
     91 H91       -51.4902  -29.1597    7.1255 H         1 UNK         0.1469 
     92 H92       -55.0016  -27.3476    8.7554 H         1 UNK         0.1381 
     93 H93       -55.2470  -31.2258    6.9478 H         1 UNK         0.1206 
     94 H94       -57.2992  -29.8306    7.4079 H         1 UNK         0.0813 
     95 H95       -57.1835  -28.3809    8.3675 H         1 UNK         0.0813 
     96 H96       -57.4852  -28.9689   11.6028 H         1 UNK         0.0638 
     97 H97       -56.2001  -28.2871   10.6556 H         1 UNK         0.0638 
     98 H98       -55.8437  -30.8528   12.2851 H         1 UNK         0.0568 
     99 H99       -52.3624  -28.9319   11.2014 H         1 UNK         0.3450 
    100 H100      -53.5650  -28.0776   12.1375 H         1 UNK         0.3450 
    101 H101      -56.0652  -28.2087   13.3484 H         1 UNK         0.2987 
    102 H102      -56.1661  -28.3897   15.8854 H         1 UNK         0.0766 
    103 H103      -54.5482  -28.3272   17.7755 H         1 UNK         0.0798 
    104 H104      -53.3410  -29.1511   16.7917 H         1 UNK         0.0798 
    105 H105      -54.8274  -29.9768   17.2416 H         1 UNK         0.0798 
    106 H106      -53.6768  -26.9218   15.7702 H         1 UNK         0.3198 
    107 H107      -53.8586  -25.0929   13.3801 H         1 UNK         0.0843 
    108 H108      -56.0086  -23.5481   14.9151 H         1 UNK         0.0831 
    109 H109      -56.0048  -23.9188   13.1995 H         1 UNK         0.0831 
    110 H110      -54.8033  -22.8197   13.8530 H         1 UNK         0.0831 
    111 H111      -52.4345  -24.6506   14.9670 H         1 UNK         0.3133 
    112 H112      -52.0417  -22.9362   17.1505 H         1 UNK         0.0566 
    113 H113      -51.6363  -23.7440   19.4865 H         1 UNK         0.0814 
    114 H114      -53.3087  -23.2744   19.2354 H         1 UNK         0.0814 
    115 H115      -52.8793  -24.9772   19.2761 H         1 UNK         0.0814 
    116 H116      -50.3718  -24.2692   16.6556 H         1 UNK         0.3091 
    117 H117      -49.2794  -27.2278   17.5788 H         1 UNK         0.0702 
    118 H118      -49.0870  -28.4247   15.3853 H         1 UNK         0.0785 
    119 H119      -50.5066  -27.5665   14.7913 H         1 UNK         0.0785 
    120 H120      -50.6525  -28.6933   16.1315 H         1 UNK         0.0785 
    121 H121      -48.7184  -25.8671   15.0729 H         1 UNK         0.2998 
    122 H122      -46.9205  -23.1763   16.5590 H         1 UNK         0.0697 
    123 H123      -45.9413  -25.5206   14.8435 H         1 UNK         0.0825 
    124 H124      -45.2158  -24.9717   16.3461 H         1 UNK         0.0825 
    125 H125      -45.1908  -23.9288   14.9324 H         1 UNK         0.0825 
    126 H126      -47.4557  -23.7268   13.8361 H         1 UNK         0.3029 
    127 H127      -50.7463  -22.2489   13.7083 H         1 UNK         0.0897 
    128 H128      -49.5857  -21.0757   11.8515 H         1 UNK         0.0792 
    129 H129      -49.0410  -20.4560   13.4028 H         1 UNK         0.0792 
    130 H130      -48.0169  -21.5565   12.4916 H         1 UNK         0.0792 
    131 H131      -49.3081  -23.5820   11.6764 H         1 UNK         0.3086 
    132 H132      -50.4320  -26.9194   12.3988 H         1 UNK         0.0583 
    133 H133      -52.2206  -25.8545   11.0642 H         1 UNK         0.1020 
    134 H134      -51.0495  -24.9565   10.1310 H         1 UNK         0.1020 
    135 H135      -52.9903  -26.1025    8.7111 H         1 UNK         0.0694 
    136 H136      -51.8671  -26.4845    7.4294 H         1 UNK         0.0694 
    137 H137      -48.6161  -25.9058   10.4505 H         1 UNK         0.2989 
    138 H138      -45.6599  -26.1696   12.4207 H         1 UNK         0.1055 
    139 H139      -46.0181  -28.4831   11.6240 H         1 UNK         0.0806 
    140 H140      -45.0066  -27.6133   10.4810 H         1 UNK         0.0806 
    141 H141      -46.7065  -27.9044   10.1153 H         1 UNK         0.0806 
    142 H142      -46.3601  -25.4511    9.6797 H         1 UNK         0.3061 
    143 H143      -46.6354  -21.9530   10.3365 H         1 UNK         0.0734 
    144 H144      -44.7996  -21.7957    8.6738 H         1 UNK         0.0832 
    145 H145      -44.1620  -22.2977   10.2301 H         1 UNK         0.0832 
    146 H146      -44.3665  -23.4842    8.9494 H         1 UNK         0.0832 
    147 H147      -46.6369  -23.4576    7.9057 H         1 UNK         0.3156 
    148 H148      -49.9253  -24.6794    8.0146 H         1 UNK         0.0589 
    149 H149      -49.1204  -22.1976    6.4123 H         1 UNK         0.0808 
    150 H150      -50.4763  -22.2843    7.5278 H         1 UNK         0.0808 
    151 H151      -50.4840  -23.2661    6.0745 H         1 UNK         0.0808 
    152 H152      -48.4471  -24.5768    5.7266 H         1 UNK         0.3098 
    153 H153      -46.6550  -25.8901    5.0898 H         1 UNK         0.0720 
    154 H154      -45.9696  -28.2206    6.9613 H         1 UNK         0.0791 
    155 H155      -44.9556  -26.8342    6.6076 H         1 UNK         0.0791 
    156 H156      -45.3320  -27.9868    5.3354 H         1 UNK         0.0791 
    157 H157      -48.2680  -27.1563    4.2285 H         1 UNK         0.3028 
@<TRIPOS>BOND
     1    1    2 1    
     2    1   82 1    
     3    1   83 1    
     4    1   84 1    
     5    2    3 2    
     6    2    4 am   BACKBONE|DICT|INTERRES
     7    4    5 1    
     8    4   85 1    
     9    5    6 1    
    10    5   80 1    
    11    5   86 1    
    12    6    7 1    
    13    6   87 1    
    14    6   88 1    
    15    7    8 1    
    16    8    9 1    
    17    8   89 1    
    18    8   90 1    
    19    9   10 ar   
    20    9   14 ar   
    21   10   11 ar   
    22   10   91 1    
    23   11   12 ar   
    24   11   58 1    
    25   12   13 ar   
    26   12   92 1    
    27   13   14 ar   
    28   13   15 1    
    29   14   93 1    
    30   15   16 1    
    31   15   94 1    
    32   15   95 1    
    33   16   17 1    
    34   17   18 1    
    35   17   96 1    
    36   17   97 1    
    37   18   19 1    
    38   18   22 1    
    39   18   98 1    
    40   19   20 am   BACKBONE|DICT|INTERRES
    41   19   21 2    
    42   20   99 1    
    43   20  100 1    
    44   22   23 am   BACKBONE|DICT|INTERRES
    45   22  101 1    
    46   23   24 2    
    47   23   25 1    
    48   25   26 1    
    49   25   27 1    
    50   25  102 1    
    51   26  103 1    
    52   26  104 1    
    53   26  105 1    
    54   27   28 am   BACKBONE|DICT|INTERRES
    55   27  106 1    
    56   28   29 2    
    57   28   30 1    
    58   30   31 1    
    59   30   32 1    
    60   30  107 1    
    61   31  108 1    
    62   31  109 1    
    63   31  110 1    
    64   32   33 am   BACKBONE|DICT|INTERRES
    65   32  111 1    
    66   33   34 2    
    67   33   35 1    
    68   35   36 1    
    69   35   37 1    
    70   35  112 1    
    71   36  113 1    
    72   36  114 1    
    73   36  115 1    
    74   37   38 am   BACKBONE|DICT|INTERRES
    75   37  116 1    
    76   38   39 2    
    77   38   40 1    
    78   40   41 1    
    79   40   42 1    
    80   40  117 1    
    81   41  118 1    
    82   41  119 1    
    83   41  120 1    
    84   42   43 am   BACKBONE|DICT|INTERRES
    85   42  121 1    
    86   43   44 2    
    87   43   45 1    
    88   45   46 1    
    89   45   47 1    
    90   45  122 1    
    91   46  123 1    
    92   46  124 1    
    93   46  125 1    
    94   47   48 am   BACKBONE|DICT|INTERRES
    95   47  126 1    
    96   48   49 2    
    97   48   50 1    
    98   50   51 1    
    99   50   52 1    
   100   50  127 1    
   101   51  128 1    
   102   51  129 1    
   103   51  130 1    
   104   52   53 am   BACKBONE|DICT|INTERRES
   105   52  131 1    
   106   53   54 2    
   107   53   55 1    
   108   55   56 1    
   109   55   59 1    
   110   55  132 1    
   111   56   57 1    
   112   56  133 1    
   113   56  134 1    
   114   57   58 1    
   115   58  135 1    
   116   58  136 1    
   117   59   60 am   BACKBONE|DICT|INTERRES
   118   59  137 1    
   119   60   61 2    
   120   60   62 1    
   121   62   63 1    
   122   62   64 1    
   123   62  138 1    
   124   63  139 1    
   125   63  140 1    
   126   63  141 1    
   127   64   65 am   BACKBONE|DICT|INTERRES
   128   64  142 1    
   129   65   66 2    
   130   65   67 1    
   131   67   68 1    
   132   67   69 1    
   133   67  143 1    
   134   68  144 1    
   135   68  145 1    
   136   68  146 1    
   137   69   70 am   BACKBONE|DICT|INTERRES
   138   69  147 1    
   139   70   71 2    
   140   70   72 1    
   141   72   73 1    
   142   72   74 1    
   143   72  148 1    
   144   73  149 1    
   145   73  150 1    
   146   73  151 1    
   147   74   75 am   BACKBONE|DICT|INTERRES
   148   74  152 1    
   149   75   76 2    
   150   75   77 1    
   151   77   78 1    
   152   77   79 1    
   153   77  153 1    
   154   78  154 1    
   155   78  155 1    
   156   78  156 1    
   157   79   80 am   BACKBONE|DICT|INTERRES
   158   79  157 1    
   159   80   81 2    
@<TRIPOS>SUBSTRUCTURE
     1 UNK         1 GROUP             0       ****    0 ROOT    
