@<TRIPOS>MOLECULE
3R207
157   159    1
SMALL
USER_CHARGES


@<TRIPOS>ATOM
      1 CA        -46.6660  -30.7910    3.1404 C.3       0 UNK        -0.1975 
      2 C         -47.5366  -30.8366    4.3937 C.2       0 UNK         0.4852 
      3 O         -47.3884  -31.7559    5.1964 O.2       0 UNK        -0.5216 
      4 N         -48.4555  -29.8836    4.6108 N.am      1 UNK        -0.4461 
      5 CA        -48.7276  -28.6974    3.7860 C.3       1 UNK         0.0864 
      6 C6        -50.1070  -28.0767    4.1258 C.3       14 UNK        -0.0898 
      7 S7        -50.2923  -27.5624    5.8739 S.3       14 UNK        -0.2598 
      8 C8        -51.6803  -28.6126    6.3976 C.3       14 UNK         0.0286 
      9 C9        -52.1609  -28.2382    7.7899 C.ar      14 UNK        -0.0844 
     10 C10       -52.9610  -27.1056    7.9681 C.ar      14 UNK        -0.0881 
     11 C11       -53.4394  -26.7617    9.2357 C.ar      14 UNK        -0.0643 
     12 C12       -53.1272  -27.5814   10.3248 C.ar      14 UNK        -0.0930 
     13 C13       -52.3085  -28.7017   10.1660 C.ar      14 UNK        -0.0827 
     14 C14       -51.8251  -29.0258    8.8950 C.ar      14 UNK        -0.1249 
     15 C15       -51.9376  -29.5499   11.3713 C.3       14 UNK         0.0141 
     16 S16       -52.9341  -31.0723   11.4288 S.3       14 UNK        -0.2313 
     17 C17       -53.5903  -31.0641   13.1314 C.3       14 UNK        -0.0915 
     18 CA        -55.1027  -30.7267   13.1714 C.3       13 UNK         0.0968 
     19 C         -55.6987  -31.0120   14.5764 C.2       13 UNK         0.5732 
     20 N         -56.0965  -32.2493   14.8393 N.am      13 UNK        -0.7310 
     21 O         -55.7704  -30.1386   15.4390 O.2       13 UNK        -0.5035 
     22 N         -55.3577  -29.3461   12.7439 N.am      13 UNK        -0.4233 
     23 C         -56.5414  -28.8764   12.3393 C.2       13 UNK         0.4989 
     24 O         -57.5408  -29.5795   12.1770 O.2       13 UNK        -0.4996 
     25 CA        -56.6195  -27.3547   12.1073 C.3       12 UNK         0.0216 
     26 CB        -57.9048  -26.9286   11.3739 C.3       12 UNK        -0.1964 
     27 N         -56.5191  -26.6145   13.3674 N.am      12 UNK        -0.4276 
     28 C         -55.3935  -26.4403   14.0701 C.2       12 UNK         0.5020 
     29 O         -54.2879  -26.8593   13.7121 O.2       12 UNK        -0.5489 
     30 CA        -55.5335  -25.7164   15.4133 C.3       11 UNK         0.0294 
     31 CB        -56.1164  -26.6703   16.4759 C.3       11 UNK        -0.2019 
     32 N         -54.2070  -25.2599   15.8091 N.am      11 UNK        -0.4493 
     33 C         -53.8964  -24.4520   16.8287 C.2       11 UNK         0.4932 
     34 O         -54.7354  -23.9250   17.5614 O.2       11 UNK        -0.5029 
     35 CA        -52.3958  -24.1783   17.0601 C.3       10 UNK         0.0280 
     36 CB        -52.0596  -23.8429   18.5284 C.3       10 UNK        -0.1976 
     37 N         -51.5324  -25.2475   16.5438 N.am      10 UNK        -0.4242 
     38 C         -51.4560  -26.5211   16.9603 C.2       10 UNK         0.5072 
     39 O         -52.0701  -26.9748   17.9265 O.2       10 UNK        -0.5224 
     40 CA        -50.5527  -27.4607   16.1418 C.3       9 UNK         0.0343 
     41 CB        -51.3683  -28.1526   15.0388 C.3       9 UNK        -0.2003 
     42 N         -49.4041  -26.7773   15.5402 N.am      9 UNK        -0.4272 
     43 C         -48.3541  -26.3176   16.2373 C.2       9 UNK         0.4988 
     44 O         -48.2090  -26.4843   17.4490 O.2       9 UNK        -0.5108 
     45 CA        -47.2922  -25.5242   15.4578 C.3       8 UNK         0.0248 
     46 CB        -46.3720  -26.4709   14.6705 C.3       8 UNK        -0.2001 
     47 N         -47.8753  -24.5327   14.5513 N.am      8 UNK        -0.4140 
     48 C         -48.5866  -23.4627   14.9365 C.2       8 UNK         0.5028 
     49 O         -48.7943  -23.1595   16.1112 O.2       8 UNK        -0.5428 
     50 CA        -49.1955  -22.5962   13.8213 C.3       7 UNK         0.0264 
     51 CB        -48.1679  -21.5878   13.2821 C.3       7 UNK        -0.1988 
     52 N         -49.7298  -23.3982   12.7184 N.am      7 UNK        -0.4454 
     53 C         -50.8066  -24.1924   12.8149 C.2       7 UNK         0.5027 
     54 O         -51.4814  -24.3035   13.8379 O.2       7 UNK        -0.5083 
     55 CA        -51.1568  -25.0385   11.5772 C.3       6 UNK         0.0844 
     56 C56       -52.0083  -24.2436   10.5498 C.3       14 UNK        -0.0967 
     57 S57       -53.7974  -24.4695   10.8367 S.3       14 UNK        -0.2604 
     58 C58       -54.2855  -25.5017    9.4092 C.3       14 UNK         0.0134 
     59 N         -49.9596  -25.6203   10.9686 N.am      6 UNK        -0.4116 
     60 C         -49.2120  -26.5813   11.5333 C.2       5 UNK         0.5034 
     61 O         -49.4643  -27.0991   12.6207 O.2       5 UNK        -0.5045 
     62 CA        -47.9328  -27.0004   10.7859 C.3       5 UNK         0.0224 
     63 CB        -48.2505  -28.1033    9.7625 C.3       5 UNK        -0.1978 
     64 N         -47.2729  -25.8852   10.1026 N.am      5 UNK        -0.4737 
     65 C         -46.8558  -24.7511   10.6847 C.2       4 UNK         0.5027 
     66 O         -46.8679  -24.5671   11.9001 O.2       4 UNK        -0.5211 
     67 CA        -46.4168  -23.6041    9.7562 C.3       4 UNK         0.0297 
     68 CB        -44.8841  -23.5238    9.6958 C.3       4 UNK        -0.1993 
     69 N         -46.9481  -23.7121    8.3931 N.am      4 UNK        -0.4486 
     70 C         -48.2405  -23.7475    8.0412 C.2       3 UNK         0.4961 
     71 O         -49.1685  -23.6296    8.8426 O.2       3 UNK        -0.5105 
     72 CA        -48.5501  -24.0589    6.5663 C.3       3 UNK         0.0299 
     73 CB        -48.4458  -22.7976    5.6882 C.3       3 UNK        -0.1972 
     74 N         -47.7642  -25.1813    6.0243 N.am      3 UNK        -0.4305 
     75 C         -46.4456  -25.2512    5.7707 C.2       2 UNK         0.5006 
     76 O         -45.6705  -24.3097    5.9427 O.2       2 UNK        -0.5106 
     77 CA        -45.8676  -26.6065    5.3166 C.3       2 UNK         0.0296 
     78 CB        -44.9454  -27.1828    6.4054 C.3       2 UNK        -0.2002 
     79 N         -46.8904  -27.6041    4.9960 N.am      2 UNK        -0.4032 
     80 C         -47.6160  -27.6294    3.8692 C.2       1 UNK         0.5000 
     81 O         -47.4508  -26.8496    2.9304 O.2       1 UNK        -0.5238 
     82 H82       -45.9590  -29.9636    3.1868 H         1 UNK         0.0889 
     83 H83       -47.2702  -30.6919    2.2396 H         1 UNK         0.0889 
     84 H84       -46.0901  -31.7114    3.0458 H         1 UNK         0.0889 
     85 H85       -49.0232  -29.9543    5.4432 H         1 UNK         0.3028 
     86 H86       -48.7745  -29.0163    2.7433 H         1 UNK         0.0864 
     87 H87       -50.8907  -28.7928    3.8739 H         1 UNK         0.0720 
     88 H88       -50.3021  -27.2083    3.4930 H         1 UNK         0.0720 
     89 H89       -51.3781  -29.6605    6.3629 H         1 UNK         0.0814 
     90 H90       -52.5058  -28.5051    5.6922 H         1 UNK         0.0814 
     91 H91       -53.2059  -26.4893    7.1136 H         1 UNK         0.1469 
     92 H92       -53.4930  -27.3255   11.3079 H         1 UNK         0.1381 
     93 H93       -51.1979  -29.8975    8.7676 H         1 UNK         0.1206 
     94 H94       -50.8805  -29.8150   11.3273 H         1 UNK         0.0813 
     95 H95       -52.0633  -28.9670   12.2838 H         1 UNK         0.0813 
     96 H96       -53.0203  -30.3815   13.7627 H         1 UNK         0.0638 
     97 H97       -53.4141  -32.0618   13.5376 H         1 UNK         0.0638 
     98 H98       -55.6114  -31.3869   12.4657 H         1 UNK         0.0568 
     99 H99       -56.4732  -32.4575   15.7507 H         1 UNK         0.3450 
    100 H100      -56.0326  -32.9777   14.1453 H         1 UNK         0.3450 
    101 H101      -54.6403  -28.6642   12.9668 H         1 UNK         0.2987 
    102 H102      -55.7767  -27.0778   11.4746 H         1 UNK         0.0766 
    103 H103      -57.8999  -25.8606   11.1551 H         1 UNK         0.0798 
    104 H104      -58.7990  -27.1485   11.9585 H         1 UNK         0.0798 
    105 H105      -58.0006  -27.4516   10.4213 H         1 UNK         0.0798 
    106 H106      -57.3871  -26.2718   13.7539 H         1 UNK         0.3198 
    107 H107      -56.1837  -24.8486   15.2854 H         1 UNK         0.0843 
    108 H108      -55.4599  -27.5252   16.6459 H         1 UNK         0.0831 
    109 H109      -57.0861  -27.0632   16.1682 H         1 UNK         0.0831 
    110 H110      -56.2648  -26.1688   17.4319 H         1 UNK         0.0831 
    111 H111      -53.4677  -25.6151   15.2115 H         1 UNK         0.3133 
    112 H112      -52.1580  -23.2971   16.4627 H         1 UNK         0.0566 
    113 H113      -50.9930  -23.6566   18.6562 H         1 UNK         0.0814 
    114 H114      -52.5859  -22.9451   18.8544 H         1 UNK         0.0814 
    115 H115      -52.3447  -24.6487   19.2052 H         1 UNK         0.0814 
    116 H116      -51.0451  -25.0062   15.6870 H         1 UNK         0.3091 
    117 H117      -50.1768  -28.2300   16.8196 H         1 UNK         0.0702 
    118 H118      -50.7764  -28.9111   14.5263 H         1 UNK         0.0785 
    119 H119      -51.7156  -27.4386   14.2909 H         1 UNK         0.0785 
    120 H120      -52.2492  -28.6472   15.4509 H         1 UNK         0.0785 
    121 H121      -49.4187  -26.6651   14.5300 H         1 UNK         0.2998 
    122 H122      -46.6807  -24.9848   16.1841 H         1 UNK         0.0697 
    123 H123      -46.9235  -27.0409   13.9229 H         1 UNK         0.0825 
    124 H124      -45.8887  -27.1875   15.3359 H         1 UNK         0.0825 
    125 H125      -45.5831  -25.9213   14.1565 H         1 UNK         0.0825 
    126 H126      -47.6805  -24.6503   13.5587 H         1 UNK         0.3029 
    127 H127      -50.0243  -22.0339   14.2578 H         1 UNK         0.0897 
    128 H128      -48.6107  -20.9316   12.5326 H         1 UNK         0.0792 
    129 H129      -47.7906  -20.9528   14.0849 H         1 UNK         0.0792 
    130 H130      -47.3081  -22.0826   12.8298 H         1 UNK         0.0792 
    131 H131      -49.2078  -23.3923   11.8537 H         1 UNK         0.3086 
    132 H132      -51.7441  -25.8808   11.9462 H         1 UNK         0.0583 
    133 H133      -51.7748  -23.1769   10.5604 H         1 UNK         0.1020 
    134 H134      -51.7806  -24.5662    9.5325 H         1 UNK         0.1020 
    135 H135      -55.3317  -25.7883    9.5187 H         1 UNK         0.0694 
    136 H136      -54.2318  -24.8818    8.5129 H         1 UNK         0.0694 
    137 H137      -49.6508  -25.2031   10.0979 H         1 UNK         0.2989 
    138 H138      -47.2337  -27.3994   11.5233 H         1 UNK         0.1055 
    139 H139      -48.7177  -28.9612   10.2479 H         1 UNK         0.0806 
    140 H140      -47.3467  -28.4650    9.2719 H         1 UNK         0.0806 
    141 H141      -48.9381  -27.7552    8.9899 H         1 UNK         0.0806 
    142 H142      -47.2153  -25.9395    9.0972 H         1 UNK         0.3061 
    143 H143      -46.7967  -22.6751   10.1859 H         1 UNK         0.0734 
    144 H144      -44.5541  -22.6625    9.1147 H         1 UNK         0.0832 
    145 H145      -44.4588  -23.4208   10.6953 H         1 UNK         0.0832 
    146 H146      -44.4504  -24.4183    9.2466 H         1 UNK         0.0832 
    147 H147      -46.2713  -23.8211    7.6403 H         1 UNK         0.3156 
    148 H148      -49.5892  -24.3909    6.5314 H         1 UNK         0.0589 
    149 H149      -47.4421  -22.3719    5.6933 H         1 UNK         0.0808 
    150 H150      -49.1255  -22.0221    6.0439 H         1 UNK         0.0808 
    151 H151      -48.7132  -23.0131    4.6537 H         1 UNK         0.0808 
    152 H152      -48.3018  -26.0246    5.8725 H         1 UNK         0.3098 
    153 H153      -45.2684  -26.4204    4.4227 H         1 UNK         0.0720 
    154 H154      -44.1384  -26.4886    6.6447 H         1 UNK         0.0791 
    155 H155      -44.4800  -28.1131    6.0790 H         1 UNK         0.0791 
    156 H156      -45.4861  -27.3844    7.3311 H         1 UNK         0.0791 
    157 H157      -47.0960  -28.2920    5.7067 H         1 UNK         0.3028 
@<TRIPOS>BOND
     1    1    2 1    
     2    1   82 1    
     3    1   83 1    
     4    1   84 1    
     5    2    3 2    
     6    2    4 am   BACKBONE|DICT|INTERRES
     7    4    5 1    
     8    4   85 1    
     9    5    6 1    
    10    5   80 1    
    11    5   86 1    
    12    6    7 1    
    13    6   87 1    
    14    6   88 1    
    15    7    8 1    
    16    8    9 1    
    17    8   89 1    
    18    8   90 1    
    19    9   10 ar   
    20    9   14 ar   
    21   10   11 ar   
    22   10   91 1    
    23   11   12 ar   
    24   11   58 1    
    25   12   13 ar   
    26   12   92 1    
    27   13   14 ar   
    28   13   15 1    
    29   14   93 1    
    30   15   16 1    
    31   15   94 1    
    32   15   95 1    
    33   16   17 1    
    34   17   18 1    
    35   17   96 1    
    36   17   97 1    
    37   18   19 1    
    38   18   22 1    
    39   18   98 1    
    40   19   20 am   BACKBONE|DICT|INTERRES
    41   19   21 2    
    42   20   99 1    
    43   20  100 1    
    44   22   23 am   BACKBONE|DICT|INTERRES
    45   22  101 1    
    46   23   24 2    
    47   23   25 1    
    48   25   26 1    
    49   25   27 1    
    50   25  102 1    
    51   26  103 1    
    52   26  104 1    
    53   26  105 1    
    54   27   28 am   BACKBONE|DICT|INTERRES
    55   27  106 1    
    56   28   29 2    
    57   28   30 1    
    58   30   31 1    
    59   30   32 1    
    60   30  107 1    
    61   31  108 1    
    62   31  109 1    
    63   31  110 1    
    64   32   33 am   BACKBONE|DICT|INTERRES
    65   32  111 1    
    66   33   34 2    
    67   33   35 1    
    68   35   36 1    
    69   35   37 1    
    70   35  112 1    
    71   36  113 1    
    72   36  114 1    
    73   36  115 1    
    74   37   38 am   BACKBONE|DICT|INTERRES
    75   37  116 1    
    76   38   39 2    
    77   38   40 1    
    78   40   41 1    
    79   40   42 1    
    80   40  117 1    
    81   41  118 1    
    82   41  119 1    
    83   41  120 1    
    84   42   43 am   BACKBONE|DICT|INTERRES
    85   42  121 1    
    86   43   44 2    
    87   43   45 1    
    88   45   46 1    
    89   45   47 1    
    90   45  122 1    
    91   46  123 1    
    92   46  124 1    
    93   46  125 1    
    94   47   48 am   BACKBONE|DICT|INTERRES
    95   47  126 1    
    96   48   49 2    
    97   48   50 1    
    98   50   51 1    
    99   50   52 1    
   100   50  127 1    
   101   51  128 1    
   102   51  129 1    
   103   51  130 1    
   104   52   53 am   BACKBONE|DICT|INTERRES
   105   52  131 1    
   106   53   54 2    
   107   53   55 1    
   108   55   56 1    
   109   55   59 1    
   110   55  132 1    
   111   56   57 1    
   112   56  133 1    
   113   56  134 1    
   114   57   58 1    
   115   58  135 1    
   116   58  136 1    
   117   59   60 am   BACKBONE|DICT|INTERRES
   118   59  137 1    
   119   60   61 2    
   120   60   62 1    
   121   62   63 1    
   122   62   64 1    
   123   62  138 1    
   124   63  139 1    
   125   63  140 1    
   126   63  141 1    
   127   64   65 am   BACKBONE|DICT|INTERRES
   128   64  142 1    
   129   65   66 2    
   130   65   67 1    
   131   67   68 1    
   132   67   69 1    
   133   67  143 1    
   134   68  144 1    
   135   68  145 1    
   136   68  146 1    
   137   69   70 am   BACKBONE|DICT|INTERRES
   138   69  147 1    
   139   70   71 2    
   140   70   72 1    
   141   72   73 1    
   142   72   74 1    
   143   72  148 1    
   144   73  149 1    
   145   73  150 1    
   146   73  151 1    
   147   74   75 am   BACKBONE|DICT|INTERRES
   148   74  152 1    
   149   75   76 2    
   150   75   77 1    
   151   77   78 1    
   152   77   79 1    
   153   77  153 1    
   154   78  154 1    
   155   78  155 1    
   156   78  156 1    
   157   79   80 am   BACKBONE|DICT|INTERRES
   158   79  157 1    
   159   80   81 2    
@<TRIPOS>SUBSTRUCTURE
     1 UNK         1 GROUP             0       ****    0 ROOT    
