@<TRIPOS>MOLECULE
3R207
157   159    1
SMALL
USER_CHARGES


@<TRIPOS>ATOM
      1 CA        -52.9885  -29.3274    9.6861 C.3       0 UNK        -0.1975 
      2 C         -51.7957  -30.0717    9.1127 C.2       0 UNK         0.4852 
      3 O         -51.3320  -31.0442    9.7078 O.2       0 UNK        -0.5216 
      4 N         -51.2950  -29.6189    7.9570 N.am      1 UNK        -0.4461 
      5 CA        -50.1972  -30.2447    7.2081 C.3       1 UNK         0.0864 
      6 C6        -50.2207  -29.8634    5.7036 C.3       14 UNK        -0.0898 
      7 S7        -51.8412  -30.1361    4.9033 S.3       14 UNK        -0.2598 
      8 C8        -52.3090  -28.4489    4.3946 C.3       14 UNK         0.0286 
      9 C9        -52.7953  -27.6078    5.5669 C.ar      14 UNK        -0.0844 
     10 C10       -51.8908  -26.8508    6.3140 C.ar      14 UNK        -0.0881 
     11 C11       -52.3305  -26.0868    7.3955 C.ar      14 UNK        -0.0643 
     12 C12       -53.6929  -26.0415    7.7027 C.ar      14 UNK        -0.0930 
     13 C13       -54.6187  -26.7839    6.9550 C.ar      14 UNK        -0.0827 
     14 C14       -54.1544  -27.5701    5.8941 C.ar      14 UNK        -0.1249 
     15 C15       -56.1260  -26.7452    7.2256 C.3       14 UNK         0.0141 
     16 S16       -56.6248  -26.1225    8.8694 S.3       14 UNK        -0.2313 
     17 C17       -56.1334  -27.5077    9.9479 C.3       14 UNK        -0.0915 
     18 CA        -57.3243  -28.0790   10.7765 C.3       13 UNK         0.0968 
     19 C         -58.1310  -29.1904   10.0339 C.2       13 UNK         0.5732 
     20 N         -58.6916  -30.1723   10.7304 N.am      13 UNK        -0.7310 
     21 O         -58.2830  -29.1523    8.8155 O.2       13 UNK        -0.5035 
     22 N         -56.9279  -28.4106   12.1565 N.am      13 UNK        -0.4233 
     23 C         -56.0308  -29.3385   12.5120 C.2       13 UNK         0.4989 
     24 O         -55.4550  -30.0896   11.7234 O.2       13 UNK        -0.4996 
     25 CA        -55.7510  -29.4726   14.0167 C.3       12 UNK         0.0216 
     26 CB        -56.4959  -30.6851   14.5996 C.3       12 UNK        -0.1964 
     27 N         -54.3177  -29.6079   14.2857 N.am      12 UNK        -0.4276 
     28 C         -53.4246  -28.6221   14.1341 C.2       12 UNK         0.5020 
     29 O         -53.7123  -27.4840   13.7548 O.2       12 UNK        -0.5489 
     30 CA        -51.9654  -28.9563   14.4740 C.3       11 UNK         0.0294 
     31 CB        -51.0995  -29.0523   13.2064 C.3       11 UNK        -0.2019 
     32 N         -51.4304  -27.9137   15.3452 N.am      11 UNK        -0.4493 
     33 C         -51.5267  -27.9144   16.6807 C.2       11 UNK         0.4932 
     34 O         -52.0258  -28.8346   17.3314 O.2       11 UNK        -0.5029 
     35 CA        -50.9592  -26.6740   17.3974 C.3       10 UNK         0.0280 
     36 CB        -50.8518  -26.8412   18.9282 C.3       10 UNK        -0.1976 
     37 N         -49.6848  -26.2433   16.8130 N.am      10 UNK        -0.4242 
     38 C         -48.5232  -26.9151   16.7808 C.2       10 UNK         0.5072 
     39 O         -48.3282  -27.9926   17.3448 O.2       10 UNK        -0.5224 
     40 CA        -47.3809  -26.2915   15.9559 C.3       9 UNK         0.0343 
     41 CB        -47.2603  -27.0019   14.5967 C.3       9 UNK        -0.2003 
     42 N         -47.5401  -24.8540   15.7225 N.am      9 UNK        -0.4272 
     43 C         -47.4334  -23.8995   16.6579 C.2       9 UNK         0.4988 
     44 O         -47.1364  -24.1166   17.8328 O.2       9 UNK        -0.5108 
     45 CA        -47.7337  -22.4626   16.2058 C.3       8 UNK         0.0248 
     46 CB        -46.4993  -21.8304   15.5412 C.3       8 UNK        -0.2001 
     47 N         -48.8694  -22.4194   15.2810 N.am      8 UNK        -0.4140 
     48 C         -50.1555  -22.4218   15.6590 C.2       8 UNK         0.5028 
     49 O         -50.5229  -22.4085   16.8340 O.2       8 UNK        -0.5428 
     50 CA        -51.2179  -22.4515   14.5442 C.3       7 UNK         0.0264 
     51 CB        -51.6012  -21.0219   14.1287 C.3       7 UNK        -0.1988 
     52 N         -50.8045  -23.2072   13.3581 N.am      7 UNK        -0.4454 
     53 C         -50.6451  -24.5383   13.3293 C.2       7 UNK         0.5027 
     54 O         -50.8411  -25.2717   14.2983 O.2       7 UNK        -0.5083 
     55 CA        -50.1327  -25.1599   12.0156 C.3       6 UNK         0.0844 
     56 C56       -51.3133  -25.5335   11.0875 C.3       14 UNK        -0.0967 
     57 S57       -50.7275  -26.4011    9.5919 S.3       14 UNK        -0.2604 
     58 C58       -51.3210  -25.3346    8.2427 C.3       14 UNK         0.0134 
     59 N         -49.1101  -24.3644   11.3216 N.am      6 UNK        -0.4116 
     60 C         -47.9737  -23.8867   11.8471 C.2       5 UNK         0.5034 
     61 O         -47.7006  -23.9534   13.0455 O.2       5 UNK        -0.5045 
     62 CA        -46.9698  -23.2232   10.8898 C.3       5 UNK         0.0224 
     63 CB        -45.5276  -23.6482   11.2225 C.3       5 UNK        -0.1978 
     64 N         -47.2374  -23.5489    9.4853 N.am      5 UNK        -0.4737 
     65 C         -47.7440  -22.7030    8.5760 C.2       4 UNK         0.5027 
     66 O         -48.1326  -21.5688    8.8555 O.2       4 UNK        -0.5211 
     67 CA        -47.8137  -23.1859    7.1132 C.3       4 UNK         0.0297 
     68 CB        -47.4470  -22.0671    6.1207 C.3       4 UNK        -0.1993 
     69 N         -46.9186  -24.3235    6.8991 N.am      4 UNK        -0.4486 
     70 C         -47.2770  -25.5235    6.4313 C.2       3 UNK         0.4961 
     71 O         -48.3963  -25.7905    5.9931 O.2       3 UNK        -0.5105 
     72 CA        -46.2185  -26.6422    6.5029 C.3       3 UNK         0.0299 
     73 CB        -44.7823  -26.1486    6.7962 C.3       3 UNK        -0.1972 
     74 N         -46.6185  -27.6672    7.4724 N.am      3 UNK        -0.4305 
     75 C         -46.9147  -27.4845    8.7687 C.2       2 UNK         0.5006 
     76 O         -46.8033  -26.4052    9.3546 O.2       2 UNK        -0.5106 
     77 CA        -47.4715  -28.7132    9.5101 C.3       2 UNK         0.0296 
     78 CB        -47.7277  -28.4435   11.0046 C.3       2 UNK        -0.2002 
     79 N         -48.7175  -29.1597    8.8821 N.am      2 UNK        -0.4032 
     80 C         -48.8008  -29.9630    7.8114 C.2       1 UNK         0.5000 
     81 O         -47.8057  -30.4474    7.2675 O.2       1 UNK        -0.5238 
     82 H82       -53.1769  -28.3956    9.1560 H         1 UNK         0.0889 
     83 H83       -52.8294  -29.0886   10.7365 H         1 UNK         0.0889 
     84 H84       -53.8788  -29.9497    9.6074 H         1 UNK         0.0889 
     85 H85       -51.7306  -28.8247    7.5051 H         1 UNK         0.3028 
     86 H86       -50.3373  -31.3262    7.2684 H         1 UNK         0.0864 
     87 H87       -49.9035  -28.8304    5.5594 H         1 UNK         0.0720 
     88 H88       -49.4938  -30.4670    5.1567 H         1 UNK         0.0720 
     89 H89       -53.0968  -28.5191    3.6430 H         1 UNK         0.0814 
     90 H90       -51.4667  -27.9638    3.8987 H         1 UNK         0.0814 
     91 H91       -50.8382  -26.8607    6.0672 H         1 UNK         0.1469 
     92 H92       -54.0183  -25.4305    8.5321 H         1 UNK         0.1381 
     93 H93       -54.8577  -28.1476    5.3091 H         1 UNK         0.1206 
     94 H94       -56.5522  -27.7404    7.0885 H         1 UNK         0.0813 
     95 H95       -56.5878  -26.1088    6.4699 H         1 UNK         0.0813 
     96 H96       -55.3562  -27.1179   10.6077 H         1 UNK         0.0638 
     97 H97       -55.6534  -28.2926    9.3628 H         1 UNK         0.0638 
     98 H98       -58.0487  -27.2751   10.9100 H         1 UNK         0.0568 
     99 H99       -59.2193  -30.8801   10.2448 H         1 UNK         0.3450 
    100 H100      -58.5856  -30.2170   11.7305 H         1 UNK         0.3450 
    101 H101      -57.3727  -27.8612   12.8777 H         1 UNK         0.2987 
    102 H102      -56.1048  -28.5736   14.5266 H         1 UNK         0.0766 
    103 H103      -56.3323  -30.7737   15.6739 H         1 UNK         0.0798 
    104 H104      -56.1773  -31.6182   14.1327 H         1 UNK         0.0798 
    105 H105      -57.5719  -30.5946   14.4446 H         1 UNK         0.0798 
    106 H106      -53.9955  -30.5225   14.5674 H         1 UNK         0.3198 
    107 H107      -51.9199  -29.9183   14.9897 H         1 UNK         0.0843 
    108 H108      -51.4324  -29.8730   12.5699 H         1 UNK         0.0831 
    109 H109      -50.0544  -29.2400   13.4534 H         1 UNK         0.0831 
    110 H110      -51.1425  -28.1397   12.6134 H         1 UNK         0.0831 
    111 H111      -51.1209  -27.0562   14.8936 H         1 UNK         0.3133 
    112 H112      -51.6647  -25.8643   17.2052 H         1 UNK         0.0566 
    113 H113      -50.4489  -25.9436   19.3972 H         1 UNK         0.0814 
    114 H114      -51.8324  -27.0250   19.3687 H         1 UNK         0.0814 
    115 H115      -50.2121  -27.6802   19.2030 H         1 UNK         0.0814 
    116 H116      -49.7410  -25.4072   16.2457 H         1 UNK         0.3091 
    117 H117      -46.4520  -26.4435   16.5094 H         1 UNK         0.0702 
    118 H118      -46.4356  -26.5996   14.0077 H         1 UNK         0.0785 
    119 H119      -48.1721  -26.8994   14.0082 H         1 UNK         0.0785 
    120 H120      -47.0763  -28.0691   14.7274 H         1 UNK         0.0785 
    121 H121      -47.7171  -24.5667   14.7617 H         1 UNK         0.2998 
    122 H122      -47.9759  -21.8740   17.0935 H         1 UNK         0.0697 
    123 H123      -46.1929  -22.3735   14.6465 H         1 UNK         0.0825 
    124 H124      -45.6496  -21.8264   16.2252 H         1 UNK         0.0825 
    125 H125      -46.6895  -20.7956   15.2561 H         1 UNK         0.0825 
    126 H126      -48.6514  -22.5089   14.2967 H         1 UNK         0.3029 
    127 H127      -52.1067  -22.9353   14.9561 H         1 UNK         0.0897 
    128 H128      -52.4163  -21.0237   13.4047 H         1 UNK         0.0792 
    129 H129      -51.9375  -20.4429   14.9901 H         1 UNK         0.0792 
    130 H130      -50.7588  -20.4883   13.6868 H         1 UNK         0.0792 
    131 H131      -50.6131  -22.6787   12.5192 H         1 UNK         0.3086 
    132 H132      -49.6392  -26.0877   12.3048 H         1 UNK         0.0583 
    133 H133      -52.0169  -26.1914   11.6022 H         1 UNK         0.1020 
    134 H134      -51.8865  -24.6452   10.8186 H         1 UNK         0.1020 
    135 H135      -51.7549  -24.4071    8.6168 H         1 UNK         0.0694 
    136 H136      -50.4680  -25.0424    7.6307 H         1 UNK         0.0694 
    137 H137      -49.2249  -24.2844   10.3225 H         1 UNK         0.2989 
    138 H138      -47.0489  -22.1463   11.0525 H         1 UNK         0.1055 
    139 H139      -45.2554  -23.3640   12.2399 H         1 UNK         0.0806 
    140 H140      -44.8100  -23.1725   10.5540 H         1 UNK         0.0806 
    141 H141      -45.3983  -24.7283   11.1396 H         1 UNK         0.0806 
    142 H142      -47.0235  -24.5082    9.2155 H         1 UNK         0.3061 
    143 H143      -48.8495  -23.4761    6.9307 H         1 UNK         0.0734 
    144 H144      -48.1302  -21.2215    6.2098 H         1 UNK         0.0832 
    145 H145      -46.4374  -21.6919    6.2915 H         1 UNK         0.0832 
    146 H146      -47.5047  -22.4185    5.0904 H         1 UNK         0.0832 
    147 H147      -45.9771  -24.2156    7.2505 H         1 UNK         0.3156 
    148 H148      -46.2114  -27.1224    5.5233 H         1 UNK         0.0589 
    149 H149      -44.6859  -25.7017    7.7864 H         1 UNK         0.0808 
    150 H150      -44.0725  -26.9743    6.7444 H         1 UNK         0.0808 
    151 H151      -44.4604  -25.4096    6.0610 H         1 UNK         0.0808 
    152 H152      -46.7899  -28.5920    7.0927 H         1 UNK         0.3098 
    153 H153      -46.7232  -29.5056    9.4409 H         1 UNK         0.0720 
    154 H154      -46.8131  -28.1271   11.5080 H         1 UNK         0.0791 
    155 H155      -48.0873  -29.3374   11.5142 H         1 UNK         0.0791 
    156 H156      -48.4655  -27.6566   11.1484 H         1 UNK         0.0791 
    157 H157      -49.5716  -28.7496    9.2339 H         1 UNK         0.3028 
@<TRIPOS>BOND
     1    1    2 1    
     2    1   82 1    
     3    1   83 1    
     4    1   84 1    
     5    2    3 2    
     6    2    4 am   BACKBONE|DICT|INTERRES
     7    4    5 1    
     8    4   85 1    
     9    5    6 1    
    10    5   80 1    
    11    5   86 1    
    12    6    7 1    
    13    6   87 1    
    14    6   88 1    
    15    7    8 1    
    16    8    9 1    
    17    8   89 1    
    18    8   90 1    
    19    9   10 ar   
    20    9   14 ar   
    21   10   11 ar   
    22   10   91 1    
    23   11   12 ar   
    24   11   58 1    
    25   12   13 ar   
    26   12   92 1    
    27   13   14 ar   
    28   13   15 1    
    29   14   93 1    
    30   15   16 1    
    31   15   94 1    
    32   15   95 1    
    33   16   17 1    
    34   17   18 1    
    35   17   96 1    
    36   17   97 1    
    37   18   19 1    
    38   18   22 1    
    39   18   98 1    
    40   19   20 am   BACKBONE|DICT|INTERRES
    41   19   21 2    
    42   20   99 1    
    43   20  100 1    
    44   22   23 am   BACKBONE|DICT|INTERRES
    45   22  101 1    
    46   23   24 2    
    47   23   25 1    
    48   25   26 1    
    49   25   27 1    
    50   25  102 1    
    51   26  103 1    
    52   26  104 1    
    53   26  105 1    
    54   27   28 am   BACKBONE|DICT|INTERRES
    55   27  106 1    
    56   28   29 2    
    57   28   30 1    
    58   30   31 1    
    59   30   32 1    
    60   30  107 1    
    61   31  108 1    
    62   31  109 1    
    63   31  110 1    
    64   32   33 am   BACKBONE|DICT|INTERRES
    65   32  111 1    
    66   33   34 2    
    67   33   35 1    
    68   35   36 1    
    69   35   37 1    
    70   35  112 1    
    71   36  113 1    
    72   36  114 1    
    73   36  115 1    
    74   37   38 am   BACKBONE|DICT|INTERRES
    75   37  116 1    
    76   38   39 2    
    77   38   40 1    
    78   40   41 1    
    79   40   42 1    
    80   40  117 1    
    81   41  118 1    
    82   41  119 1    
    83   41  120 1    
    84   42   43 am   BACKBONE|DICT|INTERRES
    85   42  121 1    
    86   43   44 2    
    87   43   45 1    
    88   45   46 1    
    89   45   47 1    
    90   45  122 1    
    91   46  123 1    
    92   46  124 1    
    93   46  125 1    
    94   47   48 am   BACKBONE|DICT|INTERRES
    95   47  126 1    
    96   48   49 2    
    97   48   50 1    
    98   50   51 1    
    99   50   52 1    
   100   50  127 1    
   101   51  128 1    
   102   51  129 1    
   103   51  130 1    
   104   52   53 am   BACKBONE|DICT|INTERRES
   105   52  131 1    
   106   53   54 2    
   107   53   55 1    
   108   55   56 1    
   109   55   59 1    
   110   55  132 1    
   111   56   57 1    
   112   56  133 1    
   113   56  134 1    
   114   57   58 1    
   115   58  135 1    
   116   58  136 1    
   117   59   60 am   BACKBONE|DICT|INTERRES
   118   59  137 1    
   119   60   61 2    
   120   60   62 1    
   121   62   63 1    
   122   62   64 1    
   123   62  138 1    
   124   63  139 1    
   125   63  140 1    
   126   63  141 1    
   127   64   65 am   BACKBONE|DICT|INTERRES
   128   64  142 1    
   129   65   66 2    
   130   65   67 1    
   131   67   68 1    
   132   67   69 1    
   133   67  143 1    
   134   68  144 1    
   135   68  145 1    
   136   68  146 1    
   137   69   70 am   BACKBONE|DICT|INTERRES
   138   69  147 1    
   139   70   71 2    
   140   70   72 1    
   141   72   73 1    
   142   72   74 1    
   143   72  148 1    
   144   73  149 1    
   145   73  150 1    
   146   73  151 1    
   147   74   75 am   BACKBONE|DICT|INTERRES
   148   74  152 1    
   149   75   76 2    
   150   75   77 1    
   151   77   78 1    
   152   77   79 1    
   153   77  153 1    
   154   78  154 1    
   155   78  155 1    
   156   78  156 1    
   157   79   80 am   BACKBONE|DICT|INTERRES
   158   79  157 1    
   159   80   81 2    
@<TRIPOS>SUBSTRUCTURE
     1 UNK         1 GROUP             0       ****    0 ROOT    
