@<TRIPOS>MOLECULE
3R207
157   159    1
SMALL
USER_CHARGES


@<TRIPOS>ATOM
      1 CA        -46.9334  -30.5246    1.6060 C.3       0 UNK        -0.1975 
      2 C         -47.8010  -31.3088    2.5877 C.2       0 UNK         0.4852 
      3 O         -47.5280  -32.4851    2.8205 O.2       0 UNK        -0.5216 
      4 N         -48.8538  -30.7252    3.1802 N.am      1 UNK        -0.4461 
      5 CA        -49.2907  -29.3253    3.0806 C.3       1 UNK         0.0864 
      6 C6        -50.7128  -29.1163    3.6701 C.3       14 UNK        -0.0898 
      7 S7        -50.9640  -29.8754    5.3151 S.3       14 UNK        -0.2598 
      8 C8        -51.2430  -28.4173    6.3651 C.3       14 UNK         0.0286 
      9 C9        -51.1141  -28.7871    7.8339 C.ar      14 UNK        -0.0844 
     10 C10       -49.8465  -28.8931    8.4099 C.ar      14 UNK        -0.0881 
     11 C11       -49.6971  -29.2549    9.7518 C.ar      14 UNK        -0.0643 
     12 C12       -50.8385  -29.4943   10.5249 C.ar      14 UNK        -0.0930 
     13 C13       -52.1155  -29.3873    9.9619 C.ar      14 UNK        -0.0827 
     14 C14       -52.2467  -29.0380    8.6136 C.ar      14 UNK        -0.1249 
     15 C15       -53.3534  -29.6707   10.8015 C.3       14 UNK         0.0141 
     16 S16       -54.2343  -28.1385   11.2229 S.3       14 UNK        -0.2313 
     17 C17       -55.5361  -28.7865   12.3178 C.3       14 UNK        -0.0915 
     18 CA        -56.5129  -27.6789   12.7962 C.3       13 UNK         0.0968 
     19 C         -57.7333  -28.2857   13.5509 C.2       13 UNK         0.5732 
     20 N         -58.0314  -27.9032   14.7876 N.am      13 UNK        -0.7310 
     21 O         -58.4443  -29.1170   12.9905 O.2       13 UNK        -0.5035 
     22 N         -55.8161  -26.6152   13.5355 N.am      13 UNK        -0.4233 
     23 C         -56.2493  -25.3533   13.6487 C.2       13 UNK         0.4989 
     24 O         -57.2389  -24.9184   13.0559 O.2       13 UNK        -0.4996 
     25 CA        -55.4535  -24.4265   14.5944 C.3       12 UNK         0.0216 
     26 CB        -56.2475  -23.1721   15.0165 C.3       12 UNK        -0.1964 
     27 N         -54.9166  -25.1166   15.7771 N.am      12 UNK        -0.4276 
     28 C         -55.6167  -25.8167   16.6827 C.2       12 UNK         0.5020 
     29 O         -56.8435  -25.9364   16.6536 O.2       12 UNK        -0.5489 
     30 CA        -54.8044  -26.5370   17.7781 C.3       11 UNK         0.0294 
     31 CB        -55.6408  -27.5839   18.5437 C.3       11 UNK        -0.2019 
     32 N         -53.5648  -27.1503   17.2844 N.am      11 UNK        -0.4493 
     33 C         -53.4173  -28.0209   16.2744 C.2       11 UNK         0.4932 
     34 O         -54.3545  -28.4233   15.5846 O.2       11 UNK        -0.5029 
     35 CA        -51.9836  -28.5233   15.9886 C.3       10 UNK         0.0280 
     36 CB        -51.8856  -29.2629   14.6399 C.3       10 UNK        -0.1976 
     37 N         -50.9822  -27.4509   16.0148 N.am      10 UNK        -0.4242 
     38 C         -50.4999  -26.8451   17.1090 C.2       10 UNK         0.5072 
     39 O         -50.8116  -27.1678   18.2561 O.2       10 UNK        -0.5224 
     40 CA        -49.5794  -25.6298   16.8972 C.3       9 UNK         0.0343 
     41 CB        -48.1253  -26.0781   16.6862 C.3       9 UNK        -0.2003 
     42 N         -50.0041  -24.7648   15.7912 N.am      9 UNK        -0.4272 
     43 C         -51.1875  -24.1320   15.7254 C.2       9 UNK         0.4988 
     44 O         -52.0517  -24.1819   16.6023 O.2       9 UNK        -0.5108 
     45 CA        -51.4834  -23.3530   14.4342 C.3       8 UNK         0.0248 
     46 CB        -50.6953  -22.0342   14.3897 C.3       8 UNK        -0.2001 
     47 N         -51.2067  -24.1424   13.2330 N.am      8 UNK        -0.4140 
     48 C         -51.7844  -25.3156   12.9323 C.2       8 UNK         0.5028 
     49 O         -52.6860  -25.8268   13.5947 O.2       8 UNK        -0.5428 
     50 CA        -51.2111  -26.0755   11.7278 C.3       7 UNK         0.0264 
     51 CB        -51.7417  -25.5122   10.4004 C.3       7 UNK        -0.1988 
     52 N         -49.7475  -26.0761   11.7268 N.am      7 UNK        -0.4454 
     53 C         -48.9934  -26.6904   12.6513 C.2       7 UNK         0.5027 
     54 O         -49.4557  -27.3664   13.5691 O.2       7 UNK        -0.5083 
     55 CA        -47.4687  -26.4767   12.5770 C.3       6 UNK         0.0844 
     56 C56       -46.7195  -27.6289   11.8624 C.3       14 UNK        -0.0967 
     57 S57       -47.2489  -27.9685   10.1488 S.3       14 UNK        -0.2604 
     58 C58       -48.3071  -29.4421   10.3491 C.3       14 UNK         0.0134 
     59 N         -47.1337  -25.1430   12.0657 N.am      6 UNK        -0.4116 
     60 C         -47.2596  -24.0319   12.8109 C.2       5 UNK         0.5034 
     61 O         -47.6477  -24.0362   13.9804 O.2       5 UNK        -0.5045 
     62 CA        -46.9416  -22.6836   12.1409 C.3       5 UNK         0.0224 
     63 CB        -45.4261  -22.4288   12.1260 C.3       5 UNK        -0.1978 
     64 N         -47.4707  -22.5709   10.7808 N.am      5 UNK        -0.4737 
     65 C         -48.7661  -22.6673   10.4537 C.2       4 UNK         0.5027 
     66 O         -49.6652  -22.7952   11.2828 O.2       4 UNK        -0.5211 
     67 CA        -49.1321  -22.6483    8.9581 C.3       4 UNK         0.0297 
     68 CB        -49.7032  -21.2749    8.5710 C.3       4 UNK        -0.1993 
     69 N         -48.0504  -23.0003    8.0289 N.am      4 UNK        -0.4486 
     70 C         -47.3395  -24.1366    8.0382 C.2       3 UNK         0.4961 
     71 O         -47.4020  -24.9808    8.9325 O.2       3 UNK        -0.5105 
     72 CA        -46.3447  -24.3118    6.8772 C.3       3 UNK         0.0299 
     73 CB        -44.9763  -23.7284    7.2671 C.3       3 UNK        -0.1972 
     74 N         -46.1619  -25.7014    6.4430 N.am      3 UNK        -0.4305 
     75 C         -47.1265  -26.5411    6.0387 C.2       2 UNK         0.5006 
     76 O         -48.3281  -26.2647    6.0397 O.2       2 UNK        -0.5106 
     77 CA        -46.6400  -27.9116    5.5186 C.3       2 UNK         0.0296 
     78 CB        -46.0510  -28.7772    6.6471 C.3       2 UNK        -0.2002 
     79 N         -47.6744  -28.6835    4.8205 N.am      2 UNK        -0.4032 
     80 C         -48.2603  -28.3348    3.6651 C.2       1 UNK         0.5000 
     81 O         -47.9750  -27.3197    3.0269 O.2       1 UNK        -0.5238 
     82 H82       -47.5315  -29.9135    0.9317 H         1 UNK         0.0889 
     83 H83       -46.3488  -31.2078    0.9901 H         1 UNK         0.0889 
     84 H84       -46.2358  -29.8809    2.1407 H         1 UNK         0.0889 
     85 H85       -49.4101  -31.2832    3.8135 H         1 UNK         0.3028 
     86 H86       -49.3679  -29.0900    2.0176 H         1 UNK         0.0864 
     87 H87       -51.4427  -29.5716    2.9988 H         1 UNK         0.0720 
     88 H88       -50.9737  -28.0563    3.6982 H         1 UNK         0.0720 
     89 H89       -52.2294  -28.0008    6.1559 H         1 UNK         0.0814 
     90 H90       -50.5201  -27.6396    6.1195 H         1 UNK         0.0814 
     91 H91       -48.9735  -28.7009    7.8044 H         1 UNK         0.1469 
     92 H92       -50.7333  -29.7726   11.5647 H         1 UNK         0.1381 
     93 H93       -53.2318  -28.9619    8.1738 H         1 UNK         0.1206 
     94 H94       -53.0819  -30.1926   11.7205 H         1 UNK         0.0813 
     95 H95       -54.0233  -30.3348   10.2534 H         1 UNK         0.0813 
     96 H96       -55.0661  -29.2801   13.1696 H         1 UNK         0.0638 
     97 H97       -56.0727  -29.5618   11.7679 H         1 UNK         0.0638 
     98 H98       -56.9358  -27.2255   11.8979 H         1 UNK         0.0568 
     99 H99       -57.4767  -27.2079   15.2769 H         1 UNK         0.3450 
    100 H100      -58.8312  -28.3105   15.2440 H         1 UNK         0.3450 
    101 H101      -55.0001  -26.9059   14.0613 H         1 UNK         0.2987 
    102 H102      -54.5963  -24.0861   14.0156 H         1 UNK         0.0766 
    103 H103      -55.6512  -22.5236   15.6584 H         1 UNK         0.0798 
    104 H104      -57.1585  -23.4334   15.5561 H         1 UNK         0.0798 
    105 H105      -56.5417  -22.5826   14.1473 H         1 UNK         0.0798 
    106 H106      -53.9064  -25.0986   15.8745 H         1 UNK         0.3198 
    107 H107      -54.5040  -25.7652   18.4883 H         1 UNK         0.0843 
    108 H108      -56.0079  -28.3678   17.8799 H         1 UNK         0.0831 
    109 H109      -56.5098  -27.1235   19.0155 H         1 UNK         0.0831 
    110 H110      -55.0585  -28.0580   19.3336 H         1 UNK         0.0831 
    111 H111      -52.7179  -26.8990   17.7861 H         1 UNK         0.3133 
    112 H112      -51.7371  -29.2379   16.7760 H         1 UNK         0.0566 
    113 H113      -50.8782  -29.6408   14.4651 H         1 UNK         0.0814 
    114 H114      -52.5617  -30.1181   14.6075 H         1 UNK         0.0814 
    115 H115      -52.1466  -28.6084   13.8070 H         1 UNK         0.0814 
    116 H116      -50.6404  -27.1456   15.1075 H         1 UNK         0.3091 
    117 H117      -49.6174  -25.0276   17.8073 H         1 UNK         0.0702 
    118 H118      -47.4573  -25.2241   16.5718 H         1 UNK         0.0785 
    119 H119      -48.0212  -26.7076   15.8031 H         1 UNK         0.0785 
    120 H120      -47.7696  -26.6562   17.5401 H         1 UNK         0.0785 
    121 H121      -49.3404  -24.6354   15.0347 H         1 UNK         0.2998 
    122 H122      -52.5455  -23.1057   14.4296 H         1 UNK         0.0697 
    123 H123      -49.6189  -22.2037   14.3561 H         1 UNK         0.0825 
    124 H124      -50.9034  -21.4249   15.2702 H         1 UNK         0.0825 
    125 H125      -50.9649  -21.4426   13.5146 H         1 UNK         0.0825 
    126 H126      -50.5168  -23.7617   12.5870 H         1 UNK         0.3029 
    127 H127      -51.5385  -27.1119   11.8131 H         1 UNK         0.0897 
    128 H128      -51.4771  -24.4647   10.2650 H         1 UNK         0.0792 
    129 H129      -52.8296  -25.5761   10.3627 H         1 UNK         0.0792 
    130 H130      -51.3558  -26.0755    9.5502 H         1 UNK         0.0792 
    131 H131      -49.2839  -25.5552   10.9959 H         1 UNK         0.3086 
    132 H132      -47.1147  -26.5094   13.6095 H         1 UNK         0.0583 
    133 H133      -45.6530  -27.4006   11.8375 H         1 UNK         0.1020 
    134 H134      -46.7930  -28.5407   12.4572 H         1 UNK         0.1020 
    135 H135      -47.8240  -30.2858    9.8547 H         1 UNK         0.0694 
    136 H136      -48.3870  -29.7133   11.4022 H         1 UNK         0.0694 
    137 H137      -46.8907  -25.0722   11.0836 H         1 UNK         0.2989 
    138 H138      -47.4145  -21.9040   12.7425 H         1 UNK         0.1055 
    139 H139      -45.0100  -22.4942   13.1326 H         1 UNK         0.0806 
    140 H140      -45.1947  -21.4333   11.7468 H         1 UNK         0.0806 
    141 H141      -44.8983  -23.1556   11.5071 H         1 UNK         0.0806 
    142 H142      -46.8008  -22.4787   10.0315 H         1 UNK         0.3061 
    143 H143      -49.9175  -23.3926    8.8173 H         1 UNK         0.0734 
    144 H144      -48.9512  -20.4887    8.6493 H         1 UNK         0.0832 
    145 H145      -50.0875  -21.2751    7.5509 H         1 UNK         0.0832 
    146 H146      -50.5319  -20.9980    9.2248 H         1 UNK         0.0832 
    147 H147      -47.8950  -22.3525    7.2694 H         1 UNK         0.3156 
    148 H148      -46.7243  -23.7594    6.0153 H         1 UNK         0.0589 
    149 H149      -44.5351  -24.2667    8.1073 H         1 UNK         0.0808 
    150 H150      -44.2732  -23.7691    6.4349 H         1 UNK         0.0808 
    151 H151      -45.0630  -22.6815    7.5613 H         1 UNK         0.0808 
    152 H152      -45.2098  -26.0360    6.4334 H         1 UNK         0.3098 
    153 H153      -45.8454  -27.7131    4.7962 H         1 UNK         0.0720 
    154 H154      -45.5918  -29.6824    6.2494 H         1 UNK         0.0791 
    155 H155      -46.8089  -29.0811    7.3670 H         1 UNK         0.0791 
    156 H156      -45.2769  -28.2450    7.2011 H         1 UNK         0.0791 
    157 H157      -47.9884  -29.5318    5.2684 H         1 UNK         0.3028 
@<TRIPOS>BOND
     1    1    2 1    
     2    1   82 1    
     3    1   83 1    
     4    1   84 1    
     5    2    3 2    
     6    2    4 am   BACKBONE|DICT|INTERRES
     7    4    5 1    
     8    4   85 1    
     9    5    6 1    
    10    5   80 1    
    11    5   86 1    
    12    6    7 1    
    13    6   87 1    
    14    6   88 1    
    15    7    8 1    
    16    8    9 1    
    17    8   89 1    
    18    8   90 1    
    19    9   10 ar   
    20    9   14 ar   
    21   10   11 ar   
    22   10   91 1    
    23   11   12 ar   
    24   11   58 1    
    25   12   13 ar   
    26   12   92 1    
    27   13   14 ar   
    28   13   15 1    
    29   14   93 1    
    30   15   16 1    
    31   15   94 1    
    32   15   95 1    
    33   16   17 1    
    34   17   18 1    
    35   17   96 1    
    36   17   97 1    
    37   18   19 1    
    38   18   22 1    
    39   18   98 1    
    40   19   20 am   BACKBONE|DICT|INTERRES
    41   19   21 2    
    42   20   99 1    
    43   20  100 1    
    44   22   23 am   BACKBONE|DICT|INTERRES
    45   22  101 1    
    46   23   24 2    
    47   23   25 1    
    48   25   26 1    
    49   25   27 1    
    50   25  102 1    
    51   26  103 1    
    52   26  104 1    
    53   26  105 1    
    54   27   28 am   BACKBONE|DICT|INTERRES
    55   27  106 1    
    56   28   29 2    
    57   28   30 1    
    58   30   31 1    
    59   30   32 1    
    60   30  107 1    
    61   31  108 1    
    62   31  109 1    
    63   31  110 1    
    64   32   33 am   BACKBONE|DICT|INTERRES
    65   32  111 1    
    66   33   34 2    
    67   33   35 1    
    68   35   36 1    
    69   35   37 1    
    70   35  112 1    
    71   36  113 1    
    72   36  114 1    
    73   36  115 1    
    74   37   38 am   BACKBONE|DICT|INTERRES
    75   37  116 1    
    76   38   39 2    
    77   38   40 1    
    78   40   41 1    
    79   40   42 1    
    80   40  117 1    
    81   41  118 1    
    82   41  119 1    
    83   41  120 1    
    84   42   43 am   BACKBONE|DICT|INTERRES
    85   42  121 1    
    86   43   44 2    
    87   43   45 1    
    88   45   46 1    
    89   45   47 1    
    90   45  122 1    
    91   46  123 1    
    92   46  124 1    
    93   46  125 1    
    94   47   48 am   BACKBONE|DICT|INTERRES
    95   47  126 1    
    96   48   49 2    
    97   48   50 1    
    98   50   51 1    
    99   50   52 1    
   100   50  127 1    
   101   51  128 1    
   102   51  129 1    
   103   51  130 1    
   104   52   53 am   BACKBONE|DICT|INTERRES
   105   52  131 1    
   106   53   54 2    
   107   53   55 1    
   108   55   56 1    
   109   55   59 1    
   110   55  132 1    
   111   56   57 1    
   112   56  133 1    
   113   56  134 1    
   114   57   58 1    
   115   58  135 1    
   116   58  136 1    
   117   59   60 am   BACKBONE|DICT|INTERRES
   118   59  137 1    
   119   60   61 2    
   120   60   62 1    
   121   62   63 1    
   122   62   64 1    
   123   62  138 1    
   124   63  139 1    
   125   63  140 1    
   126   63  141 1    
   127   64   65 am   BACKBONE|DICT|INTERRES
   128   64  142 1    
   129   65   66 2    
   130   65   67 1    
   131   67   68 1    
   132   67   69 1    
   133   67  143 1    
   134   68  144 1    
   135   68  145 1    
   136   68  146 1    
   137   69   70 am   BACKBONE|DICT|INTERRES
   138   69  147 1    
   139   70   71 2    
   140   70   72 1    
   141   72   73 1    
   142   72   74 1    
   143   72  148 1    
   144   73  149 1    
   145   73  150 1    
   146   73  151 1    
   147   74   75 am   BACKBONE|DICT|INTERRES
   148   74  152 1    
   149   75   76 2    
   150   75   77 1    
   151   77   78 1    
   152   77   79 1    
   153   77  153 1    
   154   78  154 1    
   155   78  155 1    
   156   78  156 1    
   157   79   80 am   BACKBONE|DICT|INTERRES
   158   79  157 1    
   159   80   81 2    
@<TRIPOS>SUBSTRUCTURE
     1 UNK         1 GROUP             0       ****    0 ROOT    
