@<TRIPOS>MOLECULE
3R207
157   159    1
SMALL
USER_CHARGES


@<TRIPOS>ATOM
      1 CA        -48.5349  -28.7148    1.7790 C.3       0 UNK        -0.1975 
      2 C         -49.7305  -27.8536    2.1575 C.2       0 UNK         0.4852 
      3 O         -49.9377  -26.7966    1.5609 O.2       0 UNK        -0.5216 
      4 N         -50.5162  -28.2938    3.1493 N.am      1 UNK        -0.4461 
      5 CA        -51.7046  -27.5955    3.6588 C.3       1 UNK         0.0864 
      6 C6        -52.7020  -28.5804    4.3232 C.3       14 UNK        -0.0898 
      7 S7        -52.0197  -29.5279    5.7313 S.3       14 UNK        -0.2598 
      8 C8        -52.6426  -28.5539    7.1382 C.3       14 UNK         0.0286 
      9 C9        -52.4390  -29.2861    8.4548 C.ar      14 UNK        -0.0844 
     10 C10       -51.1998  -29.2493    9.0995 C.ar      14 UNK        -0.0881 
     11 C11       -51.0152  -29.8968   10.3290 C.ar      14 UNK        -0.0643 
     12 C12       -52.0850  -30.6055   10.8854 C.ar      14 UNK        -0.0930 
     13 C13       -53.3302  -30.6601   10.2518 C.ar      14 UNK        -0.0827 
     14 C14       -53.4993  -29.9844    9.0370 C.ar      14 UNK        -0.1249 
     15 C15       -54.4686  -31.4142   10.9410 C.3       14 UNK         0.0141 
     16 S16       -55.8355  -31.9359    9.8453 S.3       14 UNK        -0.2313 
     17 C17       -57.1349  -32.3459   11.0603 C.3       14 UNK        -0.0915 
     18 CA        -58.2982  -31.3064   11.0778 C.3       13 UNK         0.0968 
     19 C         -59.5004  -31.7640   11.9611 C.2       13 UNK         0.5732 
     20 N         -60.2310  -30.8598   12.6027 N.am      13 UNK        -0.7310 
     21 O         -59.8023  -32.9528   12.0410 O.2       13 UNK        -0.5035 
     22 N         -57.8388  -29.9241   11.3210 N.am      13 UNK        -0.4233 
     23 C         -57.2393  -29.4836   12.4333 C.2       13 UNK         0.4989 
     24 O         -57.0451  -30.1705   13.4403 O.2       13 UNK        -0.4996 
     25 CA        -56.7551  -28.0306   12.4173 C.3       12 UNK         0.0216 
     26 CB        -57.8615  -27.0659   12.8806 C.3       12 UNK        -0.1964 
     27 N         -55.6031  -27.9445   13.3080 N.am      12 UNK        -0.4276 
     28 C         -54.6112  -27.0541   13.2304 C.2       12 UNK         0.5020 
     29 O         -54.5694  -26.1334   12.4101 O.2       12 UNK        -0.5489 
     30 CA        -53.4467  -27.2651   14.2127 C.3       11 UNK         0.0294 
     31 CB        -52.3488  -28.1278   13.5701 C.3       11 UNK        -0.2019 
     32 N         -52.8605  -26.0013   14.6559 N.am      11 UNK        -0.4493 
     33 C         -53.4585  -25.1290   15.4785 C.2       11 UNK         0.4932 
     34 O         -54.5892  -25.2876   15.9438 O.2       11 UNK        -0.5029 
     35 CA        -52.6202  -23.8976   15.8742 C.3       10 UNK         0.0280 
     36 CB        -53.2765  -23.0350   16.9728 C.3       10 UNK        -0.1976 
     37 N         -51.2500  -24.2698   16.2442 N.am      10 UNK        -0.4242 
     38 C         -50.8606  -25.0994   17.2261 C.2       10 UNK         0.5072 
     39 O         -51.6246  -25.5957   18.0552 O.2       10 UNK        -0.5224 
     40 CA        -49.3667  -25.4734   17.2850 C.3       9 UNK         0.0343 
     41 CB        -49.1636  -26.9069   16.7661 C.3       9 UNK        -0.2003 
     42 N         -48.5008  -24.5672   16.5264 N.am      9 UNK        -0.4272 
     43 C         -48.2044  -23.3123   16.8925 C.2       9 UNK         0.4988 
     44 O         -48.5650  -22.8045   17.9548 O.2       9 UNK        -0.5108 
     45 CA        -47.3968  -22.4701   15.8905 C.3       8 UNK         0.0248 
     46 CB        -45.8928  -22.7497   16.0399 C.3       8 UNK        -0.2001 
     47 N         -47.8076  -22.6771   14.4967 N.am      8 UNK        -0.4140 
     48 C         -49.0231  -22.3857   14.0075 C.2       8 UNK         0.5028 
     49 O         -49.9283  -21.8872   14.6758 O.2       8 UNK        -0.5428 
     50 CA        -49.2980  -22.7507   12.5396 C.3       7 UNK         0.0264 
     51 CB        -48.6470  -21.7363   11.5860 C.3       7 UNK        -0.1988 
     52 N         -48.8519  -24.1028   12.2039 N.am      7 UNK        -0.4454 
     53 C         -49.3582  -25.2292   12.7290 C.2       7 UNK         0.5027 
     54 O         -50.3077  -25.2573   13.5135 O.2       7 UNK        -0.5083 
     55 CA        -48.6585  -26.5461   12.3432 C.3       6 UNK         0.0844 
     56 C56       -49.1992  -27.0833   10.9962 C.3       14 UNK        -0.0967 
     57 S57       -48.4409  -28.6750   10.5236 S.3       14 UNK        -0.2604 
     58 C58       -49.6895  -29.8786   11.0951 C.3       14 UNK         0.0134 
     59 N         -47.2006  -26.3945   12.3468 N.am      6 UNK        -0.4116 
     60 C         -46.4565  -26.1544   13.4350 C.2       5 UNK         0.5034 
     61 O         -46.9130  -26.0420   14.5719 O.2       5 UNK        -0.5045 
     62 CA        -44.9493  -25.9630   13.2047 C.3       5 UNK         0.0224 
     63 CB        -44.2446  -27.3207   13.0550 C.3       5 UNK        -0.1978 
     64 N         -44.6621  -25.1251   12.0371 N.am      5 UNK        -0.4737 
     65 C         -44.9857  -23.8276   11.9432 C.2       4 UNK         0.5027 
     66 O         -45.5327  -23.1916   12.8421 O.2       4 UNK        -0.5211 
     67 CA        -44.6956  -23.1365   10.6017 C.3       4 UNK         0.0297 
     68 CB        -43.2371  -22.6555   10.5459 C.3       4 UNK        -0.1993 
     69 N         -44.9861  -23.9799    9.4370 N.am      4 UNK        -0.4486 
     70 C         -46.1946  -24.4744    9.1408 C.2       3 UNK         0.4961 
     71 O         -47.1992  -24.3144    9.8409 O.2       3 UNK        -0.5105 
     72 CA        -46.2967  -25.3134    7.8652 C.3       3 UNK         0.0299 
     73 CB        -45.9118  -26.7780    8.1471 C.3       3 UNK        -0.1972 
     74 N         -47.6708  -25.2067    7.3854 N.am      3 UNK        -0.4305 
     75 C         -48.1293  -25.5967    6.1940 C.2       2 UNK         0.5006 
     76 O         -47.4538  -26.1861    5.3455 O.2       2 UNK        -0.5106 
     77 CA        -49.5837  -25.2331    5.8797 C.3       2 UNK         0.0296 
     78 CB        -49.6668  -23.8131    5.2841 C.3       2 UNK        -0.2002 
     79 N         -50.0998  -26.2234    4.9420 N.am      2 UNK        -0.4032 
     80 C         -51.3775  -26.4014    4.5865 C.2       1 UNK         0.5000 
     81 O         -52.2977  -25.6831    4.9827 O.2       1 UNK        -0.5238 
     82 H82       -47.6098  -28.1599    1.9336 H         1 UNK         0.0889 
     83 H83       -48.4858  -29.6280    2.3718 H         1 UNK         0.0889 
     84 H84       -48.5927  -28.9960    0.7278 H         1 UNK         0.0889 
     85 H85       -50.3026  -29.1685    3.6094 H         1 UNK         0.3028 
     86 H86       -52.2199  -27.1607    2.7993 H         1 UNK         0.0864 
     87 H87       -53.6107  -28.0601    4.6317 H         1 UNK         0.0720 
     88 H88       -53.0332  -29.3051    3.5778 H         1 UNK         0.0720 
     89 H89       -53.7019  -28.3359    6.9928 H         1 UNK         0.0814 
     90 H90       -52.1338  -27.5899    7.1733 H         1 UNK         0.0814 
     91 H91       -50.3879  -28.7098    8.6336 H         1 UNK         0.1469 
     92 H92       -51.9481  -31.1133   11.8307 H         1 UNK         0.1381 
     93 H93       -54.4565  -29.9918    8.5355 H         1 UNK         0.1206 
     94 H94       -54.8559  -30.7750   11.7322 H         1 UNK         0.0813 
     95 H95       -54.0746  -32.3055   11.4319 H         1 UNK         0.0813 
     96 H96       -57.5136  -33.3331   10.7906 H         1 UNK         0.0638 
     97 H97       -56.6960  -32.4575   12.0529 H         1 UNK         0.0638 
     98 H98       -58.7124  -31.2874   10.0693 H         1 UNK         0.0568 
     99 H99       -60.0052  -29.8807   12.5397 H         1 UNK         0.3450 
    100 H100      -61.0126  -31.1643   13.1613 H         1 UNK         0.3450 
    101 H101      -57.9731  -29.2838   10.5520 H         1 UNK         0.2987 
    102 H102      -56.4428  -27.7758   11.4019 H         1 UNK         0.0766 
    103 H103      -58.7311  -27.1205   12.2246 H         1 UNK         0.0798 
    104 H104      -57.5151  -26.0322   12.8716 H         1 UNK         0.0798 
    105 H105      -58.1980  -27.2958   13.8925 H         1 UNK         0.0798 
    106 H106      -55.5540  -28.7044   13.9771 H         1 UNK         0.3198 
    107 H107      -53.8209  -27.7845   15.0978 H         1 UNK         0.0843 
    108 H108      -51.5076  -28.2769   14.2474 H         1 UNK         0.0831 
    109 H109      -51.9682  -27.6735   12.6552 H         1 UNK         0.0831 
    110 H110      -52.7341  -29.1134   13.3087 H         1 UNK         0.0831 
    111 H111      -51.9450  -25.7622   14.2802 H         1 UNK         0.3133 
    112 H112      -52.5358  -23.2826   14.9771 H         1 UNK         0.0566 
    113 H113      -54.2499  -22.6657   16.6479 H         1 UNK         0.0814 
    114 H114      -53.4339  -23.5983   17.8930 H         1 UNK         0.0814 
    115 H115      -52.6631  -22.1661   17.2113 H         1 UNK         0.0814 
    116 H116      -50.5342  -23.9270   15.6157 H         1 UNK         0.3091 
    117 H117      -49.0615  -25.4415   18.3330 H         1 UNK         0.0702 
    118 H118      -49.4439  -26.9967   15.7158 H         1 UNK         0.0785 
    119 H119      -49.7701  -27.6183   17.3282 H         1 UNK         0.0785 
    120 H120      -48.1240  -27.2204   16.8629 H         1 UNK         0.0785 
    121 H121      -48.0935  -24.9385   15.6721 H         1 UNK         0.2998 
    122 H122      -47.5709  -21.4190   16.1297 H         1 UNK         0.0697 
    123 H123      -45.3023  -22.0880   15.4061 H         1 UNK         0.0825 
    124 H124      -45.5649  -22.5910   17.0681 H         1 UNK         0.0825 
    125 H125      -45.6452  -23.7774   15.7719 H         1 UNK         0.0825 
    126 H126      -47.0945  -23.0334   13.8629 H         1 UNK         0.3029 
    127 H127      -50.3790  -22.7132   12.3874 H         1 UNK         0.0897 
    128 H128      -48.8947  -21.9545   10.5470 H         1 UNK         0.0792 
    129 H129      -48.9939  -20.7240   11.7974 H         1 UNK         0.0792 
    130 H130      -47.5606  -21.7347   11.6754 H         1 UNK         0.0792 
    131 H131      -48.1046  -24.1780   11.5176 H         1 UNK         0.3086 
    132 H132      -48.9082  -27.2769   13.1157 H         1 UNK         0.0583 
    133 H133      -50.2837  -27.1975   11.0345 H         1 UNK         0.1020 
    134 H134      -49.0044  -26.3707   10.1926 H         1 UNK         0.1020 
    135 H135      -49.2486  -30.8744   11.0342 H         1 UNK         0.0694 
    136 H136      -49.8832  -29.6919   12.1527 H         1 UNK         0.0694 
    137 H137      -46.7438  -26.4467   11.4494 H         1 UNK         0.2989 
    138 H138      -44.5443  -25.4617   14.0868 H         1 UNK         0.1055 
    139 H139      -44.4349  -27.9553   13.9219 H         1 UNK         0.0806 
    140 H140      -44.5873  -27.8633   12.1730 H         1 UNK         0.0806 
    141 H141      -43.1640  -27.1999   12.9764 H         1 UNK         0.0806 
    142 H142      -44.2122  -25.5663   11.2482 H         1 UNK         0.3061 
    143 H143      -45.3438  -22.2597   10.5405 H         1 UNK         0.0734 
    144 H144      -43.0441  -22.0748    9.6437 H         1 UNK         0.0832 
    145 H145      -43.0070  -22.0126   11.3969 H         1 UNK         0.0832 
    146 H146      -42.5330  -23.4883   10.5678 H         1 UNK         0.0832 
    147 H147      -44.2170  -24.1679    8.8092 H         1 UNK         0.3156 
    148 H148      -45.6287  -24.8938    7.1102 H         1 UNK         0.0589 
    149 H149      -45.9491  -27.3863    7.2436 H         1 UNK         0.0808 
    150 H150      -44.8964  -26.8508    8.5381 H         1 UNK         0.0808 
    151 H151      -46.5768  -27.2316    8.8798 H         1 UNK         0.0808 
    152 H152      -48.2795  -24.7139    8.0287 H         1 UNK         0.3098 
    153 H153      -50.1699  -25.2846    6.7997 H         1 UNK         0.0720 
    154 H154      -49.2340  -23.0766    5.9624 H         1 UNK         0.0791 
    155 H155      -49.1273  -23.7436    4.3386 H         1 UNK         0.0791 
    156 H156      -50.6981  -23.5111    5.1026 H         1 UNK         0.0791 
    157 H157      -49.3937  -26.8509    4.5771 H         1 UNK         0.3028 
@<TRIPOS>BOND
     1    1    2 1    
     2    1   82 1    
     3    1   83 1    
     4    1   84 1    
     5    2    3 2    
     6    2    4 am   BACKBONE|DICT|INTERRES
     7    4    5 1    
     8    4   85 1    
     9    5    6 1    
    10    5   80 1    
    11    5   86 1    
    12    6    7 1    
    13    6   87 1    
    14    6   88 1    
    15    7    8 1    
    16    8    9 1    
    17    8   89 1    
    18    8   90 1    
    19    9   10 ar   
    20    9   14 ar   
    21   10   11 ar   
    22   10   91 1    
    23   11   12 ar   
    24   11   58 1    
    25   12   13 ar   
    26   12   92 1    
    27   13   14 ar   
    28   13   15 1    
    29   14   93 1    
    30   15   16 1    
    31   15   94 1    
    32   15   95 1    
    33   16   17 1    
    34   17   18 1    
    35   17   96 1    
    36   17   97 1    
    37   18   19 1    
    38   18   22 1    
    39   18   98 1    
    40   19   20 am   BACKBONE|DICT|INTERRES
    41   19   21 2    
    42   20   99 1    
    43   20  100 1    
    44   22   23 am   BACKBONE|DICT|INTERRES
    45   22  101 1    
    46   23   24 2    
    47   23   25 1    
    48   25   26 1    
    49   25   27 1    
    50   25  102 1    
    51   26  103 1    
    52   26  104 1    
    53   26  105 1    
    54   27   28 am   BACKBONE|DICT|INTERRES
    55   27  106 1    
    56   28   29 2    
    57   28   30 1    
    58   30   31 1    
    59   30   32 1    
    60   30  107 1    
    61   31  108 1    
    62   31  109 1    
    63   31  110 1    
    64   32   33 am   BACKBONE|DICT|INTERRES
    65   32  111 1    
    66   33   34 2    
    67   33   35 1    
    68   35   36 1    
    69   35   37 1    
    70   35  112 1    
    71   36  113 1    
    72   36  114 1    
    73   36  115 1    
    74   37   38 am   BACKBONE|DICT|INTERRES
    75   37  116 1    
    76   38   39 2    
    77   38   40 1    
    78   40   41 1    
    79   40   42 1    
    80   40  117 1    
    81   41  118 1    
    82   41  119 1    
    83   41  120 1    
    84   42   43 am   BACKBONE|DICT|INTERRES
    85   42  121 1    
    86   43   44 2    
    87   43   45 1    
    88   45   46 1    
    89   45   47 1    
    90   45  122 1    
    91   46  123 1    
    92   46  124 1    
    93   46  125 1    
    94   47   48 am   BACKBONE|DICT|INTERRES
    95   47  126 1    
    96   48   49 2    
    97   48   50 1    
    98   50   51 1    
    99   50   52 1    
   100   50  127 1    
   101   51  128 1    
   102   51  129 1    
   103   51  130 1    
   104   52   53 am   BACKBONE|DICT|INTERRES
   105   52  131 1    
   106   53   54 2    
   107   53   55 1    
   108   55   56 1    
   109   55   59 1    
   110   55  132 1    
   111   56   57 1    
   112   56  133 1    
   113   56  134 1    
   114   57   58 1    
   115   58  135 1    
   116   58  136 1    
   117   59   60 am   BACKBONE|DICT|INTERRES
   118   59  137 1    
   119   60   61 2    
   120   60   62 1    
   121   62   63 1    
   122   62   64 1    
   123   62  138 1    
   124   63  139 1    
   125   63  140 1    
   126   63  141 1    
   127   64   65 am   BACKBONE|DICT|INTERRES
   128   64  142 1    
   129   65   66 2    
   130   65   67 1    
   131   67   68 1    
   132   67   69 1    
   133   67  143 1    
   134   68  144 1    
   135   68  145 1    
   136   68  146 1    
   137   69   70 am   BACKBONE|DICT|INTERRES
   138   69  147 1    
   139   70   71 2    
   140   70   72 1    
   141   72   73 1    
   142   72   74 1    
   143   72  148 1    
   144   73  149 1    
   145   73  150 1    
   146   73  151 1    
   147   74   75 am   BACKBONE|DICT|INTERRES
   148   74  152 1    
   149   75   76 2    
   150   75   77 1    
   151   77   78 1    
   152   77   79 1    
   153   77  153 1    
   154   78  154 1    
   155   78  155 1    
   156   78  156 1    
   157   79   80 am   BACKBONE|DICT|INTERRES
   158   79  157 1    
   159   80   81 2    
@<TRIPOS>SUBSTRUCTURE
     1 UNK         1 GROUP             0       ****    0 ROOT    
