@<TRIPOS>MOLECULE
3R207
157   159    1
SMALL
USER_CHARGES


@<TRIPOS>ATOM
      1 CA        -47.0458  -31.9067    3.2498 C.3       0 UNK        -0.1975 
      2 C         -48.0208  -30.7388    3.2414 C.2       0 UNK         0.4852 
      3 O         -47.9498  -29.8890    2.3529 O.2       0 UNK        -0.5216 
      4 N         -48.9306  -30.6919    4.2239 N.am      1 UNK        -0.4461 
      5 CA        -49.9382  -29.6374    4.4005 C.3       1 UNK         0.0864 
      6 C6        -51.0757  -30.0694    5.3604 C.3       14 UNK        -0.0898 
      7 S7        -50.5183  -30.8777    6.9058 S.3       14 UNK        -0.2598 
      8 C8        -50.5306  -29.5144    8.1128 C.3       14 UNK         0.0286 
      9 C9        -51.8990  -28.8681    8.2579 C.ar      14 UNK        -0.0844 
     10 C10       -52.0974  -27.5554    7.8264 C.ar      14 UNK        -0.0881 
     11 C11       -53.3415  -26.9382    7.9767 C.ar      14 UNK        -0.0643 
     12 C12       -54.4015  -27.6541    8.5429 C.ar      14 UNK        -0.0930 
     13 C13       -54.2173  -28.9745    8.9674 C.ar      14 UNK        -0.0827 
     14 C14       -52.9617  -29.5731    8.8281 C.ar      14 UNK        -0.1249 
     15 C15       -55.3719  -29.7662    9.5638 C.3       14 UNK         0.0141 
     16 S16       -55.2190  -29.9409   11.3693 S.3       14 UNK        -0.2313 
     17 C17       -55.5828  -28.2468   11.9368 C.3       14 UNK        -0.0915 
     18 CA        -54.3220  -27.3902   12.2411 C.3       13 UNK         0.0968 
     19 C         -54.7526  -25.9491   12.6077 C.2       13 UNK         0.5732 
     20 N         -54.9173  -25.0778   11.6242 N.am      13 UNK        -0.7310 
     21 O         -55.0102  -25.6276   13.7643 O.2       13 UNK        -0.5035 
     22 N         -53.5108  -27.9659   13.3200 N.am      13 UNK        -0.4233 
     23 C         -52.3843  -28.6745   13.1665 C.2       13 UNK         0.4989 
     24 O         -51.8687  -28.9180   12.0757 O.2       13 UNK        -0.4996 
     25 CA        -51.7158  -29.2426   14.4329 C.3       12 UNK         0.0216 
     26 CB        -50.3375  -28.6032   14.6698 C.3       12 UNK        -0.1964 
     27 N         -52.5323  -29.0600   15.6348 N.am      12 UNK        -0.4276 
     28 C         -53.3273  -29.9955   16.1730 C.2       12 UNK         0.5020 
     29 O         -53.4581  -31.1292   15.7097 O.2       12 UNK        -0.5489 
     30 CA        -54.0966  -29.6277   17.4572 C.3       11 UNK         0.0294 
     31 CB        -53.4160  -30.2555   18.6849 C.3       11 UNK        -0.2019 
     32 N         -54.2207  -28.1844   17.6712 N.am      11 UNK        -0.4493 
     33 C         -55.0491  -27.3808   16.9902 C.2       11 UNK         0.4932 
     34 O         -55.8559  -27.7852   16.1537 O.2       11 UNK        -0.5029 
     35 CA        -54.9335  -25.8696   17.2723 C.3       10 UNK         0.0280 
     36 CB        -55.9246  -25.4547   18.3717 C.3       10 UNK        -0.1976 
     37 N         -53.5812  -25.4268   17.6425 N.am      10 UNK        -0.4242 
     38 C         -52.4826  -25.5852   16.8904 C.2       10 UNK         0.5072 
     39 O         -52.4694  -26.1569   15.7988 O.2       10 UNK        -0.5224 
     40 CA        -51.1625  -25.1072   17.4982 C.3       9 UNK         0.0343 
     41 CB        -50.6351  -26.1658   18.4907 C.3       9 UNK        -0.2003 
     42 N         -50.2006  -24.8916   16.4182 N.am      9 UNK        -0.4272 
     43 C         -49.0035  -24.3089   16.5472 C.2       9 UNK         0.4988 
     44 O         -48.5787  -23.8367   17.6031 O.2       9 UNK        -0.5108 
     45 CA        -48.1165  -24.2540   15.2936 C.3       8 UNK         0.0248 
     46 CB        -47.4782  -25.6279   15.0278 C.3       8 UNK        -0.2001 
     47 N         -48.8030  -23.7619   14.0922 N.am      8 UNK        -0.4140 
     48 C         -49.2280  -22.4968   13.9416 C.2       8 UNK         0.5028 
     49 O         -49.1878  -21.6606   14.8459 O.2       8 UNK        -0.5428 
     50 CA        -49.7358  -22.0382   12.5594 C.3       7 UNK         0.0264 
     51 CB        -48.7547  -21.0259   11.9429 C.3       7 UNK        -0.1988 
     52 N         -49.9441  -23.1149   11.5925 N.am      7 UNK        -0.4454 
     53 C         -51.0163  -23.9167   11.5547 C.2       7 UNK         0.5027 
     54 O         -51.9453  -23.8474   12.3584 O.2       7 UNK        -0.5083 
     55 CA        -51.0219  -24.9955   10.4451 C.3       6 UNK         0.0844 
     56 C56       -51.4491  -24.3866    9.0810 C.3       14 UNK        -0.0967 
     57 S57       -53.2578  -24.3105    8.8591 S.3       14 UNK        -0.2604 
     58 C58       -53.5407  -25.5036    7.5131 C.3       14 UNK         0.0134 
     59 N         -49.7336  -25.6961   10.3398 N.am      6 UNK        -0.4116 
     60 C         -49.0782  -26.2848   11.3527 C.2       5 UNK         0.5034 
     61 O         -49.4998  -26.3438   12.5053 O.2       5 UNK        -0.5045 
     62 CA        -47.6718  -26.8218   11.0509 C.3       5 UNK         0.0224 
     63 CB        -47.7283  -28.2010   10.3769 C.3       5 UNK        -0.1978 
     64 N         -46.9099  -25.8832   10.2245 N.am      5 UNK        -0.4737 
     65 C         -46.3806  -24.7396   10.6854 C.2       4 UNK         0.5027 
     66 O         -46.3966  -24.4047   11.8680 O.2       4 UNK        -0.5211 
     67 CA        -45.7571  -23.7904    9.6482 C.3       4 UNK         0.0297 
     68 CB        -44.2871  -24.1598    9.3941 C.3       4 UNK        -0.1993 
     69 N         -46.4859  -23.7760    8.3781 N.am      4 UNK        -0.4486 
     70 C         -47.7518  -23.3593    8.2282 C.2       3 UNK         0.4961 
     71 O         -48.4300  -22.8865    9.1391 O.2       3 UNK        -0.5105 
     72 CA        -48.3833  -23.5532    6.8388 C.3       3 UNK         0.0299 
     73 CB        -48.1371  -22.3178    5.9593 C.3       3 UNK        -0.1972 
     74 N         -47.8968  -24.7543    6.1515 N.am      3 UNK        -0.4305 
     75 C         -48.0823  -26.0101    6.5820 C.2       2 UNK         0.5006 
     76 O         -48.7087  -26.3022    7.6037 O.2       2 UNK        -0.5106 
     77 CA        -47.3600  -27.1092    5.7851 C.3       2 UNK         0.0296 
     78 CB        -46.1088  -27.5735    6.5494 C.3       2 UNK        -0.2002 
     79 N         -48.1913  -28.2758    5.4813 N.am      2 UNK        -0.4032 
     80 C         -49.3350  -28.2656    4.7796 C.2       1 UNK         0.5000 
     81 O         -49.8895  -27.2385    4.3835 O.2       1 UNK        -0.5238 
     82 H82       -47.1387  -32.4792    2.3273 H         1 UNK         0.0889 
     83 H83       -47.2246  -32.5816    4.0867 H         1 UNK         0.0889 
     84 H84       -46.0222  -31.5403    3.3222 H         1 UNK         0.0889 
     85 H85       -48.9519  -31.4216    4.9236 H         1 UNK         0.3028 
     86 H86       -50.3996  -29.4857    3.4218 H         1 UNK         0.0864 
     87 H87       -51.7019  -30.7991    4.8449 H         1 UNK         0.0720 
     88 H88       -51.7456  -29.2365    5.5771 H         1 UNK         0.0720 
     89 H89       -49.7858  -28.7762    7.8177 H         1 UNK         0.0814 
     90 H90       -50.2143  -29.8963    9.0845 H         1 UNK         0.0814 
     91 H91       -51.2783  -27.0158    7.3720 H         1 UNK         0.1469 
     92 H92       -55.3688  -27.1831    8.6511 H         1 UNK         0.1381 
     93 H93       -52.8106  -30.5898    9.1641 H         1 UNK         0.1206 
     94 H94       -55.3898  -30.7615    9.1175 H         1 UNK         0.0813 
     95 H95       -56.3309  -29.3080    9.3172 H         1 UNK         0.0813 
     96 H96       -56.2063  -27.7572   11.1865 H         1 UNK         0.0638 
     97 H97       -56.2031  -28.3281   12.8317 H         1 UNK         0.0638 
     98 H98       -53.7132  -27.3233   11.3378 H         1 UNK         0.0568 
     99 H99       -55.2055  -24.1415   11.8568 H         1 UNK         0.3450 
    100 H100      -54.6800  -25.3039   10.6707 H         1 UNK         0.3450 
    101 H101      -53.8245  -27.7312   14.2519 H         1 UNK         0.2987 
    102 H102      -51.5574  -30.3082   14.2544 H         1 UNK         0.0766 
    103 H103      -49.8471  -29.0230   15.5480 H         1 UNK         0.0798 
    104 H104      -50.4141  -27.5253   14.8093 H         1 UNK         0.0798 
    105 H105      -49.6782  -28.7727   13.8176 H         1 UNK         0.0798 
    106 H106      -52.5286  -28.1232   16.0262 H         1 UNK         0.3198 
    107 H107      -55.0997  -30.0512   17.3687 H         1 UNK         0.0843 
    108 H108      -52.4065  -29.8687   18.8305 H         1 UNK         0.0831 
    109 H109      -53.3363  -31.3381   18.5752 H         1 UNK         0.0831 
    110 H110      -53.9848  -30.0663   19.5955 H         1 UNK         0.0831 
    111 H111      -53.6063  -27.7687   18.3559 H         1 UNK         0.3133 
    112 H112      -55.2074  -25.3429   16.3572 H         1 UNK         0.0566 
    113 H113      -55.9308  -24.3740   18.5150 H         1 UNK         0.0814 
    114 H114      -56.9421  -25.7492   18.1100 H         1 UNK         0.0814 
    115 H115      -55.6870  -25.9208   19.3288 H         1 UNK         0.0814 
    116 H116      -53.4907  -24.9610   18.5344 H         1 UNK         0.3091 
    117 H117      -51.3327  -24.1600   18.0140 H         1 UNK         0.0702 
    118 H118      -51.3610  -26.3674   19.2792 H         1 UNK         0.0785 
    119 H119      -49.7200  -25.8381   18.9835 H         1 UNK         0.0785 
    120 H120      -50.4224  -27.1123   17.9914 H         1 UNK         0.0785 
    121 H121      -50.5053  -25.2315   15.5132 H         1 UNK         0.2998 
    122 H122      -47.3034  -23.5559   15.5044 H         1 UNK         0.0697 
    123 H123      -48.2242  -26.3872   14.7965 H         1 UNK         0.0825 
    124 H124      -46.9261  -25.9749   15.9022 H         1 UNK         0.0825 
    125 H125      -46.7721  -25.5862   14.1996 H         1 UNK         0.0825 
    126 H126      -48.8940  -24.4090   13.3182 H         1 UNK         0.3029 
    127 H127      -50.6893  -21.5308   12.7215 H         1 UNK         0.0897 
    128 H128      -49.1302  -20.6344   10.9971 H         1 UNK         0.0792 
    129 H129      -47.7800  -21.4782   11.7532 H         1 UNK         0.0792 
    130 H130      -48.5974  -20.1737   12.6055 H         1 UNK         0.0792 
    131 H131      -49.2514  -23.1989   10.8518 H         1 UNK         0.3086 
    132 H132      -51.7472  -25.7600   10.7323 H         1 UNK         0.0583 
    133 H133      -51.0470  -23.3808    8.9453 H         1 UNK         0.1020 
    134 H134      -51.0278  -24.9627    8.2592 H         1 UNK         0.1020 
    135 H135      -54.5585  -25.3767    7.1412 H         1 UNK         0.0694 
    136 H136      -52.8821  -25.2751    6.6734 H         1 UNK         0.0694 
    137 H137      -49.3115  -25.7335    9.4178 H         1 UNK         0.2989 
    138 H138      -47.1556  -26.9397   12.0066 H         1 UNK         0.1055 
    139 H139      -48.1772  -28.1510    9.3869 H         1 UNK         0.0806 
    140 H140      -48.3211  -28.8997   10.9693 H         1 UNK         0.0806 
    141 H141      -46.7318  -28.6296   10.2703 H         1 UNK         0.0806 
    142 H142      -46.8923  -26.0597    9.2305 H         1 UNK         0.3061 
    143 H143      -45.7910  -22.7806   10.0633 H         1 UNK         0.0734 
    144 H144      -43.8079  -23.4466    8.7233 H         1 UNK         0.0832 
    145 H145      -43.7194  -24.1563   10.3258 H         1 UNK         0.0832 
    146 H146      -44.1875  -25.1541    8.9568 H         1 UNK         0.0832 
    147 H147      -46.0021  -24.1342    7.5681 H         1 UNK         0.3156 
    148 H148      -49.4605  -23.6612    6.9734 H         1 UNK         0.0589 
    149 H149      -47.0754  -22.1635    5.7623 H         1 UNK         0.0808 
    150 H150      -48.6485  -22.4047    5.0004 H         1 UNK         0.0808 
    151 H151      -48.5129  -21.4150    6.4432 H         1 UNK         0.0808 
    152 H152      -47.3690  -24.6052    5.3030 H         1 UNK         0.3098 
    153 H153      -47.0401  -26.6917    4.8282 H         1 UNK         0.0720 
    154 H154      -45.4494  -26.7343    6.7753 H         1 UNK         0.0791 
    155 H155      -45.5283  -28.2871    5.9641 H         1 UNK         0.0791 
    156 H156      -46.3674  -28.0497    7.4961 H         1 UNK         0.0791 
    157 H157      -47.8299  -29.1728    5.7689 H         1 UNK         0.3028 
@<TRIPOS>BOND
     1    1    2 1    
     2    1   82 1    
     3    1   83 1    
     4    1   84 1    
     5    2    3 2    
     6    2    4 am   BACKBONE|DICT|INTERRES
     7    4    5 1    
     8    4   85 1    
     9    5    6 1    
    10    5   80 1    
    11    5   86 1    
    12    6    7 1    
    13    6   87 1    
    14    6   88 1    
    15    7    8 1    
    16    8    9 1    
    17    8   89 1    
    18    8   90 1    
    19    9   10 ar   
    20    9   14 ar   
    21   10   11 ar   
    22   10   91 1    
    23   11   12 ar   
    24   11   58 1    
    25   12   13 ar   
    26   12   92 1    
    27   13   14 ar   
    28   13   15 1    
    29   14   93 1    
    30   15   16 1    
    31   15   94 1    
    32   15   95 1    
    33   16   17 1    
    34   17   18 1    
    35   17   96 1    
    36   17   97 1    
    37   18   19 1    
    38   18   22 1    
    39   18   98 1    
    40   19   20 am   BACKBONE|DICT|INTERRES
    41   19   21 2    
    42   20   99 1    
    43   20  100 1    
    44   22   23 am   BACKBONE|DICT|INTERRES
    45   22  101 1    
    46   23   24 2    
    47   23   25 1    
    48   25   26 1    
    49   25   27 1    
    50   25  102 1    
    51   26  103 1    
    52   26  104 1    
    53   26  105 1    
    54   27   28 am   BACKBONE|DICT|INTERRES
    55   27  106 1    
    56   28   29 2    
    57   28   30 1    
    58   30   31 1    
    59   30   32 1    
    60   30  107 1    
    61   31  108 1    
    62   31  109 1    
    63   31  110 1    
    64   32   33 am   BACKBONE|DICT|INTERRES
    65   32  111 1    
    66   33   34 2    
    67   33   35 1    
    68   35   36 1    
    69   35   37 1    
    70   35  112 1    
    71   36  113 1    
    72   36  114 1    
    73   36  115 1    
    74   37   38 am   BACKBONE|DICT|INTERRES
    75   37  116 1    
    76   38   39 2    
    77   38   40 1    
    78   40   41 1    
    79   40   42 1    
    80   40  117 1    
    81   41  118 1    
    82   41  119 1    
    83   41  120 1    
    84   42   43 am   BACKBONE|DICT|INTERRES
    85   42  121 1    
    86   43   44 2    
    87   43   45 1    
    88   45   46 1    
    89   45   47 1    
    90   45  122 1    
    91   46  123 1    
    92   46  124 1    
    93   46  125 1    
    94   47   48 am   BACKBONE|DICT|INTERRES
    95   47  126 1    
    96   48   49 2    
    97   48   50 1    
    98   50   51 1    
    99   50   52 1    
   100   50  127 1    
   101   51  128 1    
   102   51  129 1    
   103   51  130 1    
   104   52   53 am   BACKBONE|DICT|INTERRES
   105   52  131 1    
   106   53   54 2    
   107   53   55 1    
   108   55   56 1    
   109   55   59 1    
   110   55  132 1    
   111   56   57 1    
   112   56  133 1    
   113   56  134 1    
   114   57   58 1    
   115   58  135 1    
   116   58  136 1    
   117   59   60 am   BACKBONE|DICT|INTERRES
   118   59  137 1    
   119   60   61 2    
   120   60   62 1    
   121   62   63 1    
   122   62   64 1    
   123   62  138 1    
   124   63  139 1    
   125   63  140 1    
   126   63  141 1    
   127   64   65 am   BACKBONE|DICT|INTERRES
   128   64  142 1    
   129   65   66 2    
   130   65   67 1    
   131   67   68 1    
   132   67   69 1    
   133   67  143 1    
   134   68  144 1    
   135   68  145 1    
   136   68  146 1    
   137   69   70 am   BACKBONE|DICT|INTERRES
   138   69  147 1    
   139   70   71 2    
   140   70   72 1    
   141   72   73 1    
   142   72   74 1    
   143   72  148 1    
   144   73  149 1    
   145   73  150 1    
   146   73  151 1    
   147   74   75 am   BACKBONE|DICT|INTERRES
   148   74  152 1    
   149   75   76 2    
   150   75   77 1    
   151   77   78 1    
   152   77   79 1    
   153   77  153 1    
   154   78  154 1    
   155   78  155 1    
   156   78  156 1    
   157   79   80 am   BACKBONE|DICT|INTERRES
   158   79  157 1    
   159   80   81 2    
@<TRIPOS>SUBSTRUCTURE
     1 UNK         1 GROUP             0       ****    0 ROOT    
