@<TRIPOS>MOLECULE
3R207
157   159    1
SMALL
USER_CHARGES


@<TRIPOS>ATOM
      1 CA        -53.6740  -20.9284    9.4331 C.3       0 UNK        -0.1975 
      2 C         -53.1588  -22.1459   10.1853 C.2       0 UNK         0.4852 
      3 O         -53.3167  -22.2187   11.4046 O.2       0 UNK        -0.5216 
      4 N         -52.5567  -23.1013    9.4674 N.am      1 UNK        -0.4461 
      5 CA        -52.0559  -24.3686   10.0161 C.3       1 UNK         0.0864 
      6 C6        -53.0945  -25.5102    9.8838 C.3       14 UNK        -0.0898 
      7 S7        -53.8439  -25.7133    8.2281 S.3       14 UNK        -0.2598 
      8 C8        -52.7658  -26.9583    7.4355 C.3       14 UNK         0.0286 
      9 C9        -52.6159  -28.2858    8.1793 C.ar      14 UNK        -0.0844 
     10 C10       -51.4526  -29.0334    7.9825 C.ar      14 UNK        -0.0881 
     11 C11       -51.2550  -30.2481    8.6481 C.ar      14 UNK        -0.0643 
     12 C12       -52.2543  -30.7238    9.5029 C.ar      14 UNK        -0.0930 
     13 C13       -53.4332  -29.9941    9.7129 C.ar      14 UNK        -0.0827 
     14 C14       -53.6051  -28.7838    9.0352 C.ar      14 UNK        -0.1249 
     15 C15       -54.5486  -30.4369   10.6643 C.3       14 UNK         0.0141 
     16 S16       -54.4263  -32.1192   11.3641 S.3       14 UNK        -0.2313 
     17 C17       -53.0767  -31.9495   12.5792 C.3       14 UNK        -0.0915 
     18 CA        -53.5852  -31.7662   14.0320 C.3       13 UNK         0.0968 
     19 C         -52.4249  -31.9980   15.0398 C.2       13 UNK         0.5732 
     20 N         -52.2402  -33.2267   15.5023 N.am      13 UNK        -0.7310 
     21 O         -51.6699  -31.0851   15.3702 O.2       13 UNK        -0.5035 
     22 N         -54.2165  -30.4516   14.2229 N.am      13 UNK        -0.4233 
     23 C         -54.9036  -30.0915   15.3140 C.2       13 UNK         0.4989 
     24 O         -55.2311  -30.8769   16.2048 O.2       13 UNK        -0.4996 
     25 CA        -55.2662  -28.6029   15.4669 C.3       12 UNK         0.0216 
     26 CB        -54.2915  -27.9263   16.4450 C.3       12 UNK        -0.1964 
     27 N         -55.2872  -27.8443   14.2119 N.am      12 UNK        -0.4276 
     28 C         -56.2249  -27.9590   13.2625 C.2       12 UNK         0.5020 
     29 O         -57.1591  -28.7607   13.3145 O.2       12 UNK        -0.5489 
     30 CA        -56.0784  -27.0062   12.0621 C.3       11 UNK         0.0294 
     31 CB        -57.2456  -27.0914   11.0569 C.3       11 UNK        -0.2019 
     32 N         -55.8309  -25.6222   12.4843 N.am      11 UNK        -0.4493 
     33 C         -56.6406  -24.8078   13.1778 C.2       11 UNK         0.4932 
     34 O         -57.7785  -25.1121   13.5385 O.2       11 UNK        -0.5029 
     35 CA        -56.0887  -23.4012   13.4978 C.3       10 UNK         0.0280 
     36 CB        -56.7771  -22.7450   14.7144 C.3       10 UNK        -0.1976 
     37 N         -54.6253  -23.3544   13.6231 N.am      10 UNK        -0.4242 
     38 C         -53.8683  -23.9474   14.5574 C.2       10 UNK         0.5072 
     39 O         -54.3093  -24.5976   15.5059 O.2       10 UNK        -0.5224 
     40 CA        -52.3449  -23.7975   14.3858 C.3       9 UNK         0.0343 
     41 CB        -51.7453  -23.0051   15.5588 C.3       9 UNK        -0.2003 
     42 N         -51.6141  -25.0631   14.2417 N.am      9 UNK        -0.4272 
     43 C         -51.9657  -26.1373   13.5201 C.2       9 UNK         0.4988 
     44 O         -53.0473  -26.2713   12.9481 O.2       9 UNK        -0.5108 
     45 CA        -50.8964  -27.2287   13.3738 C.3       8 UNK         0.0248 
     46 CB        -51.3905  -28.4408   12.5641 C.3       8 UNK        -0.2001 
     47 N         -49.7136  -26.6854   12.7122 N.am      8 UNK        -0.4140 
     48 C         -48.6851  -26.0865   13.3235 C.2       8 UNK         0.5028 
     49 O         -48.6573  -25.8564   14.5345 O.2       8 UNK        -0.5428 
     50 CA        -47.5062  -25.6724   12.4195 C.3       7 UNK         0.0264 
     51 CB        -46.2139  -25.3702   13.2045 C.3       7 UNK        -0.1988 
     52 N         -47.2417  -26.6310   11.3378 N.am      7 UNK        -0.4454 
     53 C         -47.0059  -27.9476   11.4573 C.2       7 UNK         0.5027 
     54 O         -46.8713  -28.5364   12.5311 O.2       7 UNK        -0.5083 
     55 CA        -46.9594  -28.7574   10.1475 C.3       6 UNK         0.0844 
     56 C56       -48.4039  -29.1057    9.7071 C.3       14 UNK        -0.0967 
     57 S57       -48.4654  -30.1003    8.1792 S.3       14 UNK        -0.2604 
     58 C58       -49.9864  -31.0786    8.4442 C.3       14 UNK         0.0134 
     59 N         -46.2047  -28.0891    9.0836 N.am      6 UNK        -0.4116 
     60 C         -44.9014  -27.7818    9.1123 C.2       5 UNK         0.5034 
     61 O         -44.1667  -27.9713   10.0824 O.2       5 UNK        -0.5045 
     62 CA        -44.3035  -27.1868    7.8305 C.3       5 UNK         0.0224 
     63 CB        -45.0266  -27.6293    6.5408 C.3       5 UNK        -0.1978 
     64 N         -44.3152  -25.7287    7.9168 N.am      5 UNK        -0.4737 
     65 C         -43.2837  -24.9345    7.5995 C.2       4 UNK         0.5027 
     66 O         -42.1874  -25.3619    7.2349 O.2       4 UNK        -0.5211 
     67 CA        -43.4936  -23.4075    7.6582 C.3       4 UNK         0.0297 
     68 CB        -43.4567  -22.8079    6.2420 C.3       4 UNK        -0.1993 
     69 N         -44.7460  -23.0068    8.3017 N.am      4 UNK        -0.4486 
     70 C         -44.9525  -22.9728    9.6241 C.2       3 UNK         0.4961 
     71 O         -44.0831  -23.2197   10.4597 O.2       3 UNK        -0.5105 
     72 CA        -46.3752  -22.6173   10.0986 C.3       3 UNK         0.0299 
     73 CB        -46.4631  -21.1234   10.4489 C.3       3 UNK        -0.1972 
     74 N         -47.4538  -22.9567    9.1570 N.am      3 UNK        -0.4305 
     75 C         -47.7021  -24.1755    8.6561 C.2       2 UNK         0.5006 
     76 O         -47.0222  -25.1697    8.9121 O.2       2 UNK        -0.5106 
     77 CA        -48.9172  -24.2951    7.7213 C.3       2 UNK         0.0296 
     78 CB        -48.9436  -25.6363    6.9552 C.3       2 UNK        -0.2002 
     79 N         -50.1846  -24.0703    8.4283 N.am      2 UNK        -0.4032 
     80 C         -50.6747  -24.7751    9.4633 C.2       1 UNK         0.5000 
     81 O         -50.0826  -25.7180    9.9941 O.2       1 UNK        -0.5238 
     82 H82       -53.1986  -20.0249    9.8138 H         1 UNK         0.0889 
     83 H83       -54.7504  -20.8317    9.5724 H         1 UNK         0.0889 
     84 H84       -53.4747  -20.9927    8.3636 H         1 UNK         0.0889 
     85 H85       -52.5449  -23.0210    8.4610 H         1 UNK         0.3028 
     86 H86       -51.8702  -24.2321   11.0833 H         1 UNK         0.0864 
     87 H87       -52.6833  -26.4566   10.2351 H         1 UNK         0.0720 
     88 H88       -53.9200  -25.2932   10.5588 H         1 UNK         0.0720 
     89 H89       -51.7848  -26.5071    7.2885 H         1 UNK         0.0814 
     90 H90       -53.1580  -27.1666    6.4395 H         1 UNK         0.0814 
     91 H91       -50.6935  -28.6624    7.3082 H         1 UNK         0.1469 
     92 H92       -52.0995  -31.6692   10.0006 H         1 UNK         0.1381 
     93 H93       -54.5159  -28.2219    9.1871 H         1 UNK         0.1206 
     94 H94       -55.5002  -30.3736   10.1344 H         1 UNK         0.0813 
     95 H95       -54.6100  -29.7232   11.4836 H         1 UNK         0.0813 
     96 H96       -52.4121  -31.1337   12.2964 H         1 UNK         0.0638 
     97 H97       -52.4794  -32.8598   12.4981 H         1 UNK         0.0638 
     98 H98       -54.3469  -32.5243   14.2256 H         1 UNK         0.0568 
     99 H99       -52.8454  -33.9851   15.2283 H         1 UNK         0.3450 
    100 H100      -51.4827  -33.3978   16.1448 H         1 UNK         0.3450 
    101 H101      -53.9781  -29.7384   13.5546 H         1 UNK         0.2987 
    102 H102      -56.2672  -28.5602   15.9016 H         1 UNK         0.0766 
    103 H103      -54.6183  -26.9169   16.6927 H         1 UNK         0.0798 
    104 H104      -53.2828  -27.8640   16.0346 H         1 UNK         0.0798 
    105 H105      -54.2282  -28.4785   17.3838 H         1 UNK         0.0798 
    106 H106      -54.5587  -27.1508   14.0722 H         1 UNK         0.3198 
    107 H107      -55.1777  -27.3229   11.5343 H         1 UNK         0.0843 
    108 H108      -57.0841  -26.4287   10.2067 H         1 UNK         0.0831 
    109 H109      -58.1986  -26.8267   11.5156 H         1 UNK         0.0831 
    110 H110      -57.3458  -28.1037   10.6636 H         1 UNK         0.0831 
    111 H111      -54.8792  -25.3064   12.3398 H         1 UNK         0.3133 
    112 H112      -56.3243  -22.7894   12.6259 H         1 UNK         0.0566 
    113 H113      -56.3739  -21.7519   14.9114 H         1 UNK         0.0814 
    114 H114      -57.8479  -22.6297   14.5425 H         1 UNK         0.0814 
    115 H115      -56.6582  -23.3422   15.6189 H         1 UNK         0.0814 
    116 H116      -54.1443  -22.8669   12.8650 H         1 UNK         0.3091 
    117 H117      -52.1512  -23.2301   13.4754 H         1 UNK         0.0702 
    118 H118      -52.2497  -22.0455   15.6811 H         1 UNK         0.0785 
    119 H119      -50.6872  -22.7960   15.3998 H         1 UNK         0.0785 
    120 H120      -51.8432  -23.5477   16.5001 H         1 UNK         0.0785 
    121 H121      -50.6912  -25.0898   14.6596 H         1 UNK         0.2998 
    122 H122      -50.6363  -27.5764   14.3759 H         1 UNK         0.0697 
    123 H123      -51.6217  -28.1771   11.5312 H         1 UNK         0.0825 
    124 H124      -52.2939  -28.8551   13.0064 H         1 UNK         0.0825 
    125 H125      -50.6440  -29.2349   12.5468 H         1 UNK         0.0825 
    126 H126      -49.7185  -26.6942   11.6960 H         1 UNK         0.3029 
    127 H127      -47.8328  -24.7533   11.9346 H         1 UNK         0.0897 
    128 H128      -45.4124  -25.0500   12.5383 H         1 UNK         0.0792 
    129 H129      -46.3723  -24.5702   13.9286 H         1 UNK         0.0792 
    130 H130      -45.8638  -26.2443   13.7545 H         1 UNK         0.0792 
    131 H131      -47.2998  -26.2444   10.3966 H         1 UNK         0.3086 
    132 H132      -46.4386  -29.6925   10.3643 H         1 UNK         0.0583 
    133 H133      -48.9147  -29.6546   10.5013 H         1 UNK         0.1020 
    134 H134      -48.9906  -28.1993    9.5426 H         1 UNK         0.1020 
    135 H135      -50.1350  -31.7286    7.5813 H         1 UNK         0.0694 
    136 H136      -49.8232  -31.7352    9.3004 H         1 UNK         0.0694 
    137 H137      -46.7252  -27.8782    8.2457 H         1 UNK         0.2989 
    138 H138      -43.2766  -27.5562    7.7803 H         1 UNK         0.1055 
    139 H139      -45.1106  -28.7159    6.4877 H         1 UNK         0.0806 
    140 H140      -44.4737  -27.3085    5.6577 H         1 UNK         0.0806 
    141 H141      -46.0309  -27.2123    6.4651 H         1 UNK         0.0806 
    142 H142      -45.1752  -25.3161    8.2685 H         1 UNK         0.3061 
    143 H143      -42.6601  -22.9883    8.2261 H         1 UNK         0.0734 
    144 H144      -43.5426  -21.7214    6.2671 H         1 UNK         0.0832 
    145 H145      -42.5160  -23.0432    5.7419 H         1 UNK         0.0832 
    146 H146      -44.2621  -23.1963    5.6173 H         1 UNK         0.0832 
    147 H147      -45.5193  -22.7835    7.6925 H         1 UNK         0.3156 
    148 H148      -46.5480  -23.1818   11.0139 H         1 UNK         0.0589 
    149 H149      -46.3317  -20.4933    9.5682 H         1 UNK         0.0808 
    150 H150      -47.4240  -20.8760   10.9006 H         1 UNK         0.0808 
    151 H151      -45.6904  -20.8440   11.1668 H         1 UNK         0.0808 
    152 H152      -48.0690  -22.1996    8.8951 H         1 UNK         0.3098 
    153 H153      -48.8225  -23.4999    6.9802 H         1 UNK         0.0720 
    154 H154      -49.7640  -25.6659    6.2389 H         1 UNK         0.0791 
    155 H155      -49.0497  -26.4909    7.6241 H         1 UNK         0.0791 
    156 H156      -48.0220  -25.7782    6.3904 H         1 UNK         0.0791 
    157 H157      -50.7214  -23.2811    8.1023 H         1 UNK         0.3028 
@<TRIPOS>BOND
     1    1    2 1    
     2    1   82 1    
     3    1   83 1    
     4    1   84 1    
     5    2    3 2    
     6    2    4 am   BACKBONE|DICT|INTERRES
     7    4    5 1    
     8    4   85 1    
     9    5    6 1    
    10    5   80 1    
    11    5   86 1    
    12    6    7 1    
    13    6   87 1    
    14    6   88 1    
    15    7    8 1    
    16    8    9 1    
    17    8   89 1    
    18    8   90 1    
    19    9   10 ar   
    20    9   14 ar   
    21   10   11 ar   
    22   10   91 1    
    23   11   12 ar   
    24   11   58 1    
    25   12   13 ar   
    26   12   92 1    
    27   13   14 ar   
    28   13   15 1    
    29   14   93 1    
    30   15   16 1    
    31   15   94 1    
    32   15   95 1    
    33   16   17 1    
    34   17   18 1    
    35   17   96 1    
    36   17   97 1    
    37   18   19 1    
    38   18   22 1    
    39   18   98 1    
    40   19   20 am   BACKBONE|DICT|INTERRES
    41   19   21 2    
    42   20   99 1    
    43   20  100 1    
    44   22   23 am   BACKBONE|DICT|INTERRES
    45   22  101 1    
    46   23   24 2    
    47   23   25 1    
    48   25   26 1    
    49   25   27 1    
    50   25  102 1    
    51   26  103 1    
    52   26  104 1    
    53   26  105 1    
    54   27   28 am   BACKBONE|DICT|INTERRES
    55   27  106 1    
    56   28   29 2    
    57   28   30 1    
    58   30   31 1    
    59   30   32 1    
    60   30  107 1    
    61   31  108 1    
    62   31  109 1    
    63   31  110 1    
    64   32   33 am   BACKBONE|DICT|INTERRES
    65   32  111 1    
    66   33   34 2    
    67   33   35 1    
    68   35   36 1    
    69   35   37 1    
    70   35  112 1    
    71   36  113 1    
    72   36  114 1    
    73   36  115 1    
    74   37   38 am   BACKBONE|DICT|INTERRES
    75   37  116 1    
    76   38   39 2    
    77   38   40 1    
    78   40   41 1    
    79   40   42 1    
    80   40  117 1    
    81   41  118 1    
    82   41  119 1    
    83   41  120 1    
    84   42   43 am   BACKBONE|DICT|INTERRES
    85   42  121 1    
    86   43   44 2    
    87   43   45 1    
    88   45   46 1    
    89   45   47 1    
    90   45  122 1    
    91   46  123 1    
    92   46  124 1    
    93   46  125 1    
    94   47   48 am   BACKBONE|DICT|INTERRES
    95   47  126 1    
    96   48   49 2    
    97   48   50 1    
    98   50   51 1    
    99   50   52 1    
   100   50  127 1    
   101   51  128 1    
   102   51  129 1    
   103   51  130 1    
   104   52   53 am   BACKBONE|DICT|INTERRES
   105   52  131 1    
   106   53   54 2    
   107   53   55 1    
   108   55   56 1    
   109   55   59 1    
   110   55  132 1    
   111   56   57 1    
   112   56  133 1    
   113   56  134 1    
   114   57   58 1    
   115   58  135 1    
   116   58  136 1    
   117   59   60 am   BACKBONE|DICT|INTERRES
   118   59  137 1    
   119   60   61 2    
   120   60   62 1    
   121   62   63 1    
   122   62   64 1    
   123   62  138 1    
   124   63  139 1    
   125   63  140 1    
   126   63  141 1    
   127   64   65 am   BACKBONE|DICT|INTERRES
   128   64  142 1    
   129   65   66 2    
   130   65   67 1    
   131   67   68 1    
   132   67   69 1    
   133   67  143 1    
   134   68  144 1    
   135   68  145 1    
   136   68  146 1    
   137   69   70 am   BACKBONE|DICT|INTERRES
   138   69  147 1    
   139   70   71 2    
   140   70   72 1    
   141   72   73 1    
   142   72   74 1    
   143   72  148 1    
   144   73  149 1    
   145   73  150 1    
   146   73  151 1    
   147   74   75 am   BACKBONE|DICT|INTERRES
   148   74  152 1    
   149   75   76 2    
   150   75   77 1    
   151   77   78 1    
   152   77   79 1    
   153   77  153 1    
   154   78  154 1    
   155   78  155 1    
   156   78  156 1    
   157   79   80 am   BACKBONE|DICT|INTERRES
   158   79  157 1    
   159   80   81 2    
@<TRIPOS>SUBSTRUCTURE
     1 UNK         1 GROUP             0       ****    0 ROOT    
