@<TRIPOS>MOLECULE
3R207
157   159    1
SMALL
USER_CHARGES


@<TRIPOS>ATOM
      1 CA        -48.1130  -19.4638    4.8310 C.3       0 UNK        -0.1975 
      2 C         -48.2013  -20.7334    5.6653 C.2       0 UNK         0.4852 
      3 O         -47.6387  -20.7832    6.7592 O.2       0 UNK        -0.5216 
      4 N         -48.9105  -21.7515    5.1581 N.am      1 UNK        -0.4461 
      5 CA        -49.0775  -23.0662    5.7848 C.3       1 UNK         0.0864 
      6 C6        -50.2446  -23.8439    5.1190 C.3       14 UNK        -0.0898 
      7 S7        -50.5444  -25.4984    5.8232 S.3       14 UNK        -0.2598 
      8 C8        -52.0349  -25.2022    6.8405 C.3       14 UNK         0.0286 
      9 C9        -52.4877  -26.3832    7.7050 C.ar      14 UNK        -0.0844 
     10 C10       -51.8800  -27.6439    7.6483 C.ar      14 UNK        -0.0881 
     11 C11       -52.3205  -28.6884    8.4600 C.ar      14 UNK        -0.0643 
     12 C12       -53.4084  -28.4874    9.3084 C.ar      14 UNK        -0.0930 
     13 C13       -54.0225  -27.2319    9.4034 C.ar      14 UNK        -0.0827 
     14 C14       -53.5516  -26.1913    8.5940 C.ar      14 UNK        -0.1249 
     15 C15       -55.1830  -26.9373   10.3605 C.3       14 UNK         0.0141 
     16 S16       -55.8242  -28.3516   11.3268 S.3       14 UNK        -0.2313 
     17 C17       -54.4954  -28.5752   12.5562 C.3       14 UNK        -0.0915 
     18 CA        -54.8308  -29.6521   13.6153 C.3       13 UNK         0.0968 
     19 C         -53.5785  -29.9850   14.4804 C.2       13 UNK         0.5732 
     20 N         -53.5727  -29.7524   15.7883 N.am      13 UNK        -0.7310 
     21 O         -52.5888  -30.4822   13.9494 O.2       13 UNK        -0.5035 
     22 N         -56.0278  -29.2889   14.3854 N.am      13 UNK        -0.4233 
     23 C         -56.7603  -30.1457   15.1091 C.2       13 UNK         0.4989 
     24 O         -56.5873  -31.3660   15.0993 O.2       13 UNK        -0.4996 
     25 CA        -57.8598  -29.5331   16.0057 C.3       12 UNK         0.0216 
     26 CB        -58.2112  -30.4330   17.2100 C.3       12 UNK        -0.1964 
     27 N         -57.5523  -28.1669   16.4565 N.am      12 UNK        -0.4276 
     28 C         -56.4650  -27.7684   17.1335 C.2       12 UNK         0.5020 
     29 O         -55.5721  -28.5242   17.5231 O.2       12 UNK        -0.5489 
     30 CA        -56.3089  -26.2543   17.3340 C.3       11 UNK         0.0294 
     31 CB        -56.0035  -25.9137   18.8021 C.3       11 UNK        -0.2019 
     32 N         -55.2399  -25.7266   16.4850 N.am      11 UNK        -0.4493 
     33 C         -55.2152  -25.7316   15.1470 C.2       11 UNK         0.4932 
     34 O         -56.1225  -26.1927   14.4535 O.2       11 UNK        -0.5029 
     35 CA        -53.9832  -25.1119   14.4591 C.3       10 UNK         0.0280 
     36 CB        -53.9739  -23.5794   14.6178 C.3       10 UNK        -0.1976 
     37 N         -52.6871  -25.6915   14.8417 N.am      10 UNK        -0.4242 
     38 C         -52.0900  -25.6936   16.0448 C.2       10 UNK         0.5072 
     39 O         -52.5983  -25.2547   17.0781 O.2       10 UNK        -0.5224 
     40 CA        -50.6506  -26.2320   16.0954 C.3       9 UNK         0.0343 
     41 CB        -50.6226  -27.7629   15.9703 C.3       9 UNK        -0.2003 
     42 N         -49.7948  -25.6244   15.0731 N.am      9 UNK        -0.4272 
     43 C         -49.4851  -24.3186   15.0237 C.2       9 UNK         0.4988 
     44 O         -49.8266  -23.4972   15.8757 O.2       9 UNK        -0.5108 
     45 CA        -48.6498  -23.8379   13.8276 C.3       8 UNK         0.0248 
     46 CB        -47.1498  -23.9951   14.1240 C.3       8 UNK        -0.2001 
     47 N         -48.9855  -24.5327   12.5839 N.am      8 UNK        -0.4140 
     48 C         -50.1334  -24.3775   11.9079 C.2       8 UNK         0.5028 
     49 O         -51.0168  -23.5818   12.2275 O.2       8 UNK        -0.5428 
     50 CA        -50.3395  -25.2754   10.6757 C.3       7 UNK         0.0264 
     51 CB        -49.5400  -24.7461    9.4740 C.3       7 UNK        -0.1988 
     52 N         -49.9786  -26.6718   10.9247 N.am      7 UNK        -0.4454 
     53 C         -50.5830  -27.4778   11.8109 C.2       7 UNK         0.5027 
     54 O         -51.5307  -27.1304   12.5188 O.2       7 UNK        -0.5083 
     55 CA        -49.9734  -28.8850   11.9963 C.3       6 UNK         0.0844 
     56 C56       -50.6356  -29.9666   11.1043 C.3       14 UNK        -0.0967 
     57 S57       -50.0524  -29.9833    9.3703 S.3       14 UNK        -0.2604 
     58 C58       -51.6088  -30.0308    8.4249 C.3       14 UNK         0.0134 
     59 N         -48.5137  -28.8790   11.8640 N.am      6 UNK        -0.4116 
     60 C         -47.6737  -28.2770   12.7137 C.2       5 UNK         0.5034 
     61 O         -48.0329  -27.6689   13.7228 O.2       5 UNK        -0.5045 
     62 CA        -46.1835  -28.3343   12.3456 C.3       5 UNK         0.0224 
     63 CB        -45.6458  -29.7743   12.3983 C.3       5 UNK        -0.1978 
     64 N         -45.8814  -27.7402   11.0380 N.am      5 UNK        -0.4737 
     65 C         -46.0821  -26.4570   10.7149 C.2       4 UNK         0.5027 
     66 O         -46.6802  -25.6622   11.4347 O.2       4 UNK        -0.5211 
     67 CA        -45.4964  -25.9541    9.3875 C.3       4 UNK         0.0297 
     68 CB        -43.9632  -26.1131    9.3397 C.3       4 UNK        -0.1993 
     69 N         -46.1338  -26.5068    8.1907 N.am      4 UNK        -0.4486 
     70 C         -46.1272  -27.7723    7.7435 C.2       3 UNK         0.4961 
     71 O         -45.6254  -28.7172    8.3541 O.2       3 UNK        -0.5105 
     72 CA        -46.7753  -28.0317    6.3671 C.3       3 UNK         0.0299 
     73 CB        -48.1956  -28.5815    6.5506 C.3       3 UNK        -0.1972 
     74 N         -46.8298  -26.8407    5.5121 N.am      3 UNK        -0.4305 
     75 C         -45.7585  -26.2113    5.0053 C.2       2 UNK         0.5006 
     76 O         -44.6109  -26.6501    5.0923 O.2       2 UNK        -0.5106 
     77 CA        -45.9800  -24.8551    4.3017 C.3       2 UNK         0.0296 
     78 CB        -45.8223  -25.0124    2.7799 C.3       2 UNK        -0.2002 
     79 N         -47.2546  -24.1769    4.5777 N.am      2 UNK        -0.4032 
     80 C         -47.7433  -23.8445    5.7832 C.2       1 UNK         0.5000 
     81 O         -47.1974  -24.1325    6.8504 O.2       1 UNK        -0.5238 
     82 H82       -48.5245  -18.6211    5.3860 H         1 UNK         0.0889 
     83 H83       -48.6611  -19.5515    3.8931 H         1 UNK         0.0889 
     84 H84       -47.0725  -19.2416    4.5959 H         1 UNK         0.0889 
     85 H85       -49.3539  -21.6340    4.2579 H         1 UNK         0.3028 
     86 H86       -49.3474  -22.8997    6.8299 H         1 UNK         0.0864 
     87 H87       -50.0634  -23.9698    4.0502 H         1 UNK         0.0720 
     88 H88       -51.1631  -23.2590    5.1910 H         1 UNK         0.0720 
     89 H89       -52.8556  -24.9193    6.1798 H         1 UNK         0.0814 
     90 H90       -51.8465  -24.3459    7.4896 H         1 UNK         0.0814 
     91 H91       -51.0555  -27.8330    6.9798 H         1 UNK         0.1469 
     92 H92       -53.7557  -29.3211    9.8980 H         1 UNK         0.1381 
     93 H93       -54.0212  -25.2186    8.6556 H         1 UNK         0.1206 
     94 H94       -54.8809  -26.1499   11.0525 H         1 UNK         0.0813 
     95 H95       -56.0124  -26.5323    9.7791 H         1 UNK         0.0813 
     96 H96       -54.2931  -27.6203   13.0368 H         1 UNK         0.0638 
     97 H97       -53.5793  -28.8362   12.0317 H         1 UNK         0.0638 
     98 H98       -55.0609  -30.5733   13.0768 H         1 UNK         0.0568 
     99 H99       -52.7555  -30.0035   16.3186 H         1 UNK         0.3450 
    100 H100      -54.3742  -29.3510   16.2667 H         1 UNK         0.3450 
    101 H101      -56.2313  -28.2975   14.4386 H         1 UNK         0.2987 
    102 H102      -58.7492  -29.4568   15.3785 H         1 UNK         0.0766 
    103 H103      -58.9980  -29.9901   17.8205 H         1 UNK         0.0798 
    104 H104      -57.3460  -30.6051   17.8513 H         1 UNK         0.0798 
    105 H105      -58.5707  -31.4087   16.8805 H         1 UNK         0.0798 
    106 H106      -58.1945  -27.4532   16.1380 H         1 UNK         0.3198 
    107 H107      -57.2398  -25.7561   17.0553 H         1 UNK         0.0843 
    108 H108      -55.0552  -26.3440   19.1275 H         1 UNK         0.0831 
    109 H109      -56.7810  -26.3003   19.4623 H         1 UNK         0.0831 
    110 H110      -55.9522  -24.8359   18.9572 H         1 UNK         0.0831 
    111 H111      -54.3895  -25.4133   16.9511 H         1 UNK         0.3133 
    112 H112      -54.0835  -25.3154   13.3922 H         1 UNK         0.0566 
    113 H113      -53.8505  -23.2738   15.6571 H         1 UNK         0.0814 
    114 H114      -53.1652  -23.1300   14.0409 H         1 UNK         0.0814 
    115 H115      -54.9080  -23.1446   14.2596 H         1 UNK         0.0814 
    116 H116      -52.1764  -26.1189   14.0716 H         1 UNK         0.3091 
    117 H117      -50.2323  -25.9695   17.0694 H         1 UNK         0.0702 
    118 H118      -49.6062  -28.1496   16.0462 H         1 UNK         0.0785 
    119 H119      -51.0395  -28.1019   15.0225 H         1 UNK         0.0785 
    120 H120      -51.2058  -28.2253   16.7673 H         1 UNK         0.0785 
    121 H121      -49.4052  -26.2440   14.3708 H         1 UNK         0.2998 
    122 H122      -48.8572  -22.7753   13.6843 H         1 UNK         0.0697 
    123 H123      -46.8704  -25.0432   14.2412 H         1 UNK         0.0825 
    124 H124      -46.8752  -23.4772   15.0439 H         1 UNK         0.0825 
    125 H125      -46.5421  -23.5759   13.3220 H         1 UNK         0.0825 
    126 H126      -48.2694  -25.1517   12.2071 H         1 UNK         0.3029 
    127 H127      -51.4011  -25.2553   10.4200 H         1 UNK         0.0897 
    128 H128      -49.6436  -25.3998    8.6095 H         1 UNK         0.0792 
    129 H129      -48.4759  -24.6581    9.6927 H         1 UNK         0.0792 
    130 H130      -49.8917  -23.7564    9.1813 H         1 UNK         0.0792 
    131 H131      -49.1974  -27.0408   10.4045 H         1 UNK         0.3086 
    132 H132      -50.1892  -29.1659   13.0293 H         1 UNK         0.0583 
    133 H133      -50.4165  -30.9495   11.5243 H         1 UNK         0.1020 
    134 H134      -51.7213  -29.8854   11.1426 H         1 UNK         0.1020 
    135 H135      -51.3832  -30.2942    7.3905 H         1 UNK         0.0694 
    136 H136      -52.2486  -30.8263    8.8101 H         1 UNK         0.0694 
    137 H137      -48.1399  -29.3403   11.0470 H         1 UNK         0.2989 
    138 H138      -45.6499  -27.7500   13.0988 H         1 UNK         0.1055 
    139 H139      -45.8749  -30.2430   13.3565 H         1 UNK         0.0806 
    140 H140      -44.5619  -29.7942   12.2822 H         1 UNK         0.0806 
    141 H141      -46.0752  -30.4011   11.6158 H         1 UNK         0.0806 
    142 H142      -45.4642  -28.3358   10.3291 H         1 UNK         0.3061 
    143 H143      -45.7035  -24.8830    9.3487 H         1 UNK         0.0734 
    144 H144      -43.5476  -25.6443    8.4476 H         1 UNK         0.0832 
    145 H145      -43.4963  -25.6370   10.2030 H         1 UNK         0.0832 
    146 H146      -43.6533  -27.1583    9.3400 H         1 UNK         0.0832 
    147 H147      -46.5934  -25.8062    7.6126 H         1 UNK         0.3156 
    148 H148      -46.1769  -28.7865    5.8529 H         1 UNK         0.0589 
    149 H149      -48.8067  -27.9035    7.1464 H         1 UNK         0.0808 
    150 H150      -48.6954  -28.7425    5.5953 H         1 UNK         0.0808 
    151 H151      -48.1723  -29.5407    7.0690 H         1 UNK         0.0808 
    152 H152      -47.7365  -26.4146    5.3850 H         1 UNK         0.3098 
    153 H153      -45.1893  -24.1913    4.6570 H         1 UNK         0.0720 
    154 H154      -45.8464  -24.0466    2.2746 H         1 UNK         0.0791 
    155 H155      -46.6109  -25.6353    2.3558 H         1 UNK         0.0791 
    156 H156      -44.8686  -25.4798    2.5299 H         1 UNK         0.0791 
    157 H157      -47.7846  -23.8969    3.7655 H         1 UNK         0.3028 
@<TRIPOS>BOND
     1    1    2 1    
     2    1   82 1    
     3    1   83 1    
     4    1   84 1    
     5    2    3 2    
     6    2    4 am   BACKBONE|DICT|INTERRES
     7    4    5 1    
     8    4   85 1    
     9    5    6 1    
    10    5   80 1    
    11    5   86 1    
    12    6    7 1    
    13    6   87 1    
    14    6   88 1    
    15    7    8 1    
    16    8    9 1    
    17    8   89 1    
    18    8   90 1    
    19    9   10 ar   
    20    9   14 ar   
    21   10   11 ar   
    22   10   91 1    
    23   11   12 ar   
    24   11   58 1    
    25   12   13 ar   
    26   12   92 1    
    27   13   14 ar   
    28   13   15 1    
    29   14   93 1    
    30   15   16 1    
    31   15   94 1    
    32   15   95 1    
    33   16   17 1    
    34   17   18 1    
    35   17   96 1    
    36   17   97 1    
    37   18   19 1    
    38   18   22 1    
    39   18   98 1    
    40   19   20 am   BACKBONE|DICT|INTERRES
    41   19   21 2    
    42   20   99 1    
    43   20  100 1    
    44   22   23 am   BACKBONE|DICT|INTERRES
    45   22  101 1    
    46   23   24 2    
    47   23   25 1    
    48   25   26 1    
    49   25   27 1    
    50   25  102 1    
    51   26  103 1    
    52   26  104 1    
    53   26  105 1    
    54   27   28 am   BACKBONE|DICT|INTERRES
    55   27  106 1    
    56   28   29 2    
    57   28   30 1    
    58   30   31 1    
    59   30   32 1    
    60   30  107 1    
    61   31  108 1    
    62   31  109 1    
    63   31  110 1    
    64   32   33 am   BACKBONE|DICT|INTERRES
    65   32  111 1    
    66   33   34 2    
    67   33   35 1    
    68   35   36 1    
    69   35   37 1    
    70   35  112 1    
    71   36  113 1    
    72   36  114 1    
    73   36  115 1    
    74   37   38 am   BACKBONE|DICT|INTERRES
    75   37  116 1    
    76   38   39 2    
    77   38   40 1    
    78   40   41 1    
    79   40   42 1    
    80   40  117 1    
    81   41  118 1    
    82   41  119 1    
    83   41  120 1    
    84   42   43 am   BACKBONE|DICT|INTERRES
    85   42  121 1    
    86   43   44 2    
    87   43   45 1    
    88   45   46 1    
    89   45   47 1    
    90   45  122 1    
    91   46  123 1    
    92   46  124 1    
    93   46  125 1    
    94   47   48 am   BACKBONE|DICT|INTERRES
    95   47  126 1    
    96   48   49 2    
    97   48   50 1    
    98   50   51 1    
    99   50   52 1    
   100   50  127 1    
   101   51  128 1    
   102   51  129 1    
   103   51  130 1    
   104   52   53 am   BACKBONE|DICT|INTERRES
   105   52  131 1    
   106   53   54 2    
   107   53   55 1    
   108   55   56 1    
   109   55   59 1    
   110   55  132 1    
   111   56   57 1    
   112   56  133 1    
   113   56  134 1    
   114   57   58 1    
   115   58  135 1    
   116   58  136 1    
   117   59   60 am   BACKBONE|DICT|INTERRES
   118   59  137 1    
   119   60   61 2    
   120   60   62 1    
   121   62   63 1    
   122   62   64 1    
   123   62  138 1    
   124   63  139 1    
   125   63  140 1    
   126   63  141 1    
   127   64   65 am   BACKBONE|DICT|INTERRES
   128   64  142 1    
   129   65   66 2    
   130   65   67 1    
   131   67   68 1    
   132   67   69 1    
   133   67  143 1    
   134   68  144 1    
   135   68  145 1    
   136   68  146 1    
   137   69   70 am   BACKBONE|DICT|INTERRES
   138   69  147 1    
   139   70   71 2    
   140   70   72 1    
   141   72   73 1    
   142   72   74 1    
   143   72  148 1    
   144   73  149 1    
   145   73  150 1    
   146   73  151 1    
   147   74   75 am   BACKBONE|DICT|INTERRES
   148   74  152 1    
   149   75   76 2    
   150   75   77 1    
   151   77   78 1    
   152   77   79 1    
   153   77  153 1    
   154   78  154 1    
   155   78  155 1    
   156   78  156 1    
   157   79   80 am   BACKBONE|DICT|INTERRES
   158   79  157 1    
   159   80   81 2    
@<TRIPOS>SUBSTRUCTURE
     1 UNK         1 GROUP             0       ****    0 ROOT    
