@<TRIPOS>MOLECULE
3R207
157   159    1
SMALL
USER_CHARGES


@<TRIPOS>ATOM
      1 CA        -52.0944  -23.2228    8.5947 C.3       0 UNK        -0.1975 
      2 C         -51.0736  -24.1367    7.9357 C.2       0 UNK         0.4852 
      3 O         -49.8713  -23.9323    8.1035 O.2       0 UNK        -0.5216 
      4 N         -51.5389  -25.1476    7.1880 N.am      1 UNK        -0.4461 
      5 CA        -50.7201  -26.2060    6.5734 C.3       1 UNK         0.0864 
      6 C6        -51.5895  -27.3389    5.9779 C.3       14 UNK        -0.0898 
      7 S7        -52.7154  -28.0777    7.2148 S.3       14 UNK        -0.2598 
      8 C8        -52.1327  -29.8030    7.3409 C.3       14 UNK         0.0286 
      9 C9        -51.5760  -30.1323    8.7206 C.ar      14 UNK        -0.0844 
     10 C10       -50.2303  -30.4784    8.8873 C.ar      14 UNK        -0.0881 
     11 C11       -49.7417  -30.8537   10.1447 C.ar      14 UNK        -0.0643 
     12 C12       -50.6096  -30.8734   11.2413 C.ar      14 UNK        -0.0930 
     13 C13       -51.9540  -30.5186   11.0909 C.ar      14 UNK        -0.0827 
     14 C14       -52.4267  -30.1426    9.8296 C.ar      14 UNK        -0.1249 
     15 C15       -52.8886  -30.5157   12.2930 C.3       14 UNK         0.0141 
     16 S16       -54.3811  -31.5243   12.0208 S.3       14 UNK        -0.2313 
     17 C17       -55.4731  -30.9253   13.3557 C.3       14 UNK        -0.0915 
     18 CA        -56.4411  -29.8126   12.8650 C.3       13 UNK         0.0968 
     19 C         -57.6029  -29.5447   13.8666 C.2       13 UNK         0.5732 
     20 N         -57.9464  -28.3010   14.1862 N.am      13 UNK        -0.7310 
     21 O         -58.2332  -30.4855   14.3443 O.2       13 UNK        -0.5035 
     22 N         -55.7032  -28.5898   12.5255 N.am      13 UNK        -0.4233 
     23 C         -55.7269  -27.9591   11.3457 C.2       13 UNK         0.4989 
     24 O         -56.3498  -28.3678   10.3644 O.2       13 UNK        -0.4996 
     25 CA        -54.9040  -26.6567   11.2339 C.3       12 UNK         0.0216 
     26 CB        -55.5168  -25.6507   10.2382 C.3       12 UNK        -0.1964 
     27 N         -54.6238  -25.9997   12.5184 N.am      12 UNK        -0.4276 
     28 C         -55.5007  -25.5744   13.4382 C.2       12 UNK         0.5020 
     29 O         -56.7236  -25.6825   13.3216 O.2       12 UNK        -0.5489 
     30 CA        -54.8906  -24.9957   14.7324 C.3       11 UNK         0.0294 
     31 CB        -55.9525  -24.7308   15.8200 C.3       11 UNK        -0.2019 
     32 N         -53.8002  -25.8152   15.2850 N.am      11 UNK        -0.4493 
     33 C         -53.8337  -27.1231   15.5854 C.2       11 UNK         0.4932 
     34 O         -54.8065  -27.8449   15.3629 O.2       11 UNK        -0.5029 
     35 CA        -52.5804  -27.7505   16.2275 C.3       10 UNK         0.0280 
     36 CB        -52.2740  -29.1320   15.6286 C.3       10 UNK        -0.1976 
     37 N         -51.3764  -26.9205   16.1227 N.am      10 UNK        -0.4242 
     38 C         -50.9811  -26.0230   17.0353 C.2       10 UNK         0.5072 
     39 O         -51.6301  -25.7371   18.0420 O.2       10 UNK        -0.5224 
     40 CA        -49.6345  -25.3227   16.7837 C.3       9 UNK         0.0343 
     41 CB        -48.4656  -26.2420   17.1732 C.3       9 UNK        -0.2003 
     42 N         -49.4685  -24.8785   15.3985 N.am      9 UNK        -0.4272 
     43 C         -50.1824  -23.8968   14.8276 C.2       9 UNK         0.4988 
     44 O         -51.0379  -23.2371   15.4189 O.2       9 UNK        -0.5108 
     45 CA        -49.9242  -23.6260   13.3348 C.3       8 UNK         0.0248 
     46 CB        -48.6442  -22.7991   13.1366 C.3       8 UNK        -0.2001 
     47 N         -49.8490  -24.8559   12.5440 N.am      8 UNK        -0.4140 
     48 C         -50.8570  -25.7299   12.4175 C.2       8 UNK         0.5028 
     49 O         -51.9737  -25.5607   12.9007 O.2       8 UNK        -0.5428 
     50 CA        -50.5757  -27.0282   11.6551 C.3       7 UNK         0.0264 
     51 CB        -50.6970  -26.8010   10.1484 C.3       7 UNK        -0.1988 
     52 N         -49.2594  -27.5798   11.9564 N.am      7 UNK        -0.4454 
     53 C         -48.8950  -28.0758   13.1446 C.2       7 UNK         0.5027 
     54 O         -49.6300  -28.1093   14.1313 O.2       7 UNK        -0.5083 
     55 CA        -47.4403  -28.5671   13.2585 C.3       6 UNK         0.0844 
     56 C56       -47.2365  -29.9526   12.5911 C.3       14 UNK        -0.0967 
     57 S57       -47.1865  -29.9155   10.7591 S.3       14 UNK        -0.2604 
     58 C58       -48.2906  -31.2904   10.3013 C.3       14 UNK         0.0134 
     59 N         -46.4888  -27.5657   12.7704 N.am      6 UNK        -0.4116 
     60 C         -46.3381  -26.3302   13.2678 C.2       5 UNK         0.5034 
     61 O         -46.9451  -25.8996   14.2483 O.2       5 UNK        -0.5045 
     62 CA        -45.3759  -25.4006   12.5106 C.3       5 UNK         0.0224 
     63 CB        -43.9337  -25.5978   13.0037 C.3       5 UNK        -0.1978 
     64 N         -45.4259  -25.5642   11.0522 N.am      5 UNK        -0.4737 
     65 C         -46.5103  -25.3331   10.3006 C.2       4 UNK         0.5027 
     66 O         -47.6071  -25.0116   10.7615 O.2       4 UNK        -0.5211 
     67 CA        -46.3554  -25.5293    8.7892 C.3       4 UNK         0.0297 
     68 CB        -47.0191  -26.8423    8.3480 C.3       4 UNK        -0.1993 
     69 N         -46.9799  -24.4043    8.0951 N.am      4 UNK        -0.4486 
     70 C         -46.3155  -23.3317    7.6467 C.2       3 UNK         0.4961 
     71 O         -45.0888  -23.2162    7.6902 O.2       3 UNK        -0.5105 
     72 CA        -47.1773  -22.1995    7.0586 C.3       3 UNK         0.0299 
     73 CB        -46.3529  -21.0101    6.5189 C.3       3 UNK        -0.1972 
     74 N         -48.1303  -22.6956    6.0600 N.am      3 UNK        -0.4305 
     75 C         -47.8704  -23.2191    4.8513 C.2       2 UNK         0.5006 
     76 O         -46.7444  -23.3061    4.3580 O.2       2 UNK        -0.5106 
     77 CA        -49.1009  -23.7288    4.0695 C.3       2 UNK         0.0296 
     78 CB        -48.7364  -24.4756    2.7674 C.3       2 UNK        -0.2002 
     79 N         -49.9966  -24.5290    4.9161 N.am      2 UNK        -0.4032 
     80 C         -49.7039  -25.6866    5.5326 C.2       1 UNK         0.5000 
     81 O         -48.6718  -26.3289    5.3387 O.2       1 UNK        -0.5238 
     82 H82       -53.1168  -23.5043    8.3435 H         1 UNK         0.0889 
     83 H83       -51.9362  -22.1925    8.2779 H         1 UNK         0.0889 
     84 H84       -51.9862  -23.2675    9.6782 H         1 UNK         0.0889 
     85 H85       -52.5370  -25.2742    7.0937 H         1 UNK         0.3028 
     86 H86       -50.1223  -26.6443    7.3730 H         1 UNK         0.0864 
     87 H87       -50.9562  -28.1139    5.5436 H         1 UNK         0.0720 
     88 H88       -52.1991  -26.9572    5.1568 H         1 UNK         0.0720 
     89 H89       -51.3993  -30.0276    6.5663 H         1 UNK         0.0814 
     90 H90       -52.9786  -30.4630    7.1435 H         1 UNK         0.0814 
     91 H91       -49.5652  -30.4780    8.0346 H         1 UNK         0.1469 
     92 H92       -50.2382  -31.1689   12.2123 H         1 UNK         0.1381 
     93 H93       -53.4666  -29.8708    9.7062 H         1 UNK         0.1206 
     94 H94       -53.1678  -29.4845   12.5050 H         1 UNK         0.0813 
     95 H95       -52.3791  -30.8958   13.1791 H         1 UNK         0.0813 
     96 H96       -54.8768  -30.5783   14.2009 H         1 UNK         0.0638 
     97 H97       -56.0307  -31.7922   13.7140 H         1 UNK         0.0638 
     98 H98       -56.9420  -30.1920   11.9730 H         1 UNK         0.0568 
     99 H99       -58.7066  -28.1556   14.8301 H         1 UNK         0.3450 
    100 H100      -57.4542  -27.5011   13.8023 H         1 UNK         0.3450 
    101 H101      -55.2293  -28.1537   13.3081 H         1 UNK         0.2987 
    102 H102      -53.9338  -26.9598   10.8380 H         1 UNK         0.0766 
    103 H103      -54.9003  -24.7563   10.1496 H         1 UNK         0.0798 
    104 H104      -56.5168  -25.3413   10.5441 H         1 UNK         0.0798 
    105 H105      -55.5989  -26.0844    9.2407 H         1 UNK         0.0798 
    106 H106      -53.6305  -25.8594   12.7283 H         1 UNK         0.3198 
    107 H107      -54.4469  -24.0373   14.4576 H         1 UNK         0.0843 
    108 H108      -56.4538  -25.6504   16.1249 H         1 UNK         0.0831 
    109 H109      -56.7205  -24.0454   15.4593 H         1 UNK         0.0831 
    110 H110      -55.5082  -24.2805   16.7075 H         1 UNK         0.0831 
    111 H111      -52.9253  -25.3308   15.4353 H         1 UNK         0.3133 
    112 H112      -52.8181  -27.9012   17.2824 H         1 UNK         0.0566 
    113 H113      -51.4139  -29.5933   16.1142 H         1 UNK         0.0814 
    114 H114      -53.1148  -29.8164   15.7450 H         1 UNK         0.0814 
    115 H115      -52.0516  -29.0518   14.5665 H         1 UNK         0.0814 
    116 H116      -50.7629  -27.1218   15.3360 H         1 UNK         0.3091 
    117 H117      -49.5959  -24.4392   17.4246 H         1 UNK         0.0702 
    118 H118      -47.5102  -25.7237   17.0879 H         1 UNK         0.0785 
    119 H119      -48.4201  -27.1288   16.5395 H         1 UNK         0.0785 
    120 H120      -48.5603  -26.5807   18.2058 H         1 UNK         0.0785 
    121 H121      -48.7486  -25.3448   14.8534 H         1 UNK         0.2998 
    122 H122      -50.7656  -23.0442   12.9528 H         1 UNK         0.0697 
    123 H123      -47.7625  -23.3266   13.5003 H         1 UNK         0.0825 
    124 H124      -48.7041  -21.8528   13.6756 H         1 UNK         0.0825 
    125 H125      -48.4828  -22.5650   12.0840 H         1 UNK         0.0825 
    126 H126      -48.9806  -25.0333   12.0425 H         1 UNK         0.3029 
    127 H127      -51.3248  -27.7634   11.9550 H         1 UNK         0.0897 
    128 H128      -49.9839  -26.0521    9.8063 H         1 UNK         0.0792 
    129 H129      -51.6968  -26.4569    9.8827 H         1 UNK         0.0792 
    130 H130      -50.5107  -27.7175    9.5925 H         1 UNK         0.0792 
    131 H131      -48.5812  -27.5823   11.2087 H         1 UNK         0.3086 
    132 H132      -47.2408  -28.6912   14.3252 H         1 UNK         0.0583 
    133 H133      -46.2886  -30.3731   12.9304 H         1 UNK         0.1020 
    134 H134      -47.9965  -30.6552   12.9367 H         1 UNK         0.1020 
    135 H135      -47.9353  -31.7127    9.3601 H         1 UNK         0.0694 
    136 H136      -48.2109  -32.0957   11.0331 H         1 UNK         0.0694 
    137 H137      -45.9585  -27.8212   11.9504 H         1 UNK         0.2989 
    138 H138      -45.6747  -24.3747   12.7360 H         1 UNK         0.1055 
    139 H139      -43.8697  -25.4631   14.0846 H         1 UNK         0.0806 
    140 H140      -43.2564  -24.8741   12.5497 H         1 UNK         0.0806 
    141 H141      -43.5596  -26.5970   12.7773 H         1 UNK         0.0806 
    142 H142      -44.5644  -25.8292   10.5953 H         1 UNK         0.3061 
    143 H143      -45.2943  -25.5861    8.5371 H         1 UNK         0.0734 
    144 H144      -48.0780  -26.8703    8.6014 H         1 UNK         0.0832 
    145 H145      -46.9273  -26.9879    7.2720 H         1 UNK         0.0832 
    146 H146      -46.5446  -27.6982    8.8278 H         1 UNK         0.0832 
    147 H147      -47.9973  -24.3672    8.1123 H         1 UNK         0.3156 
    148 H148      -47.7811  -21.8229    7.8858 H         1 UNK         0.0589 
    149 H149      -45.6721  -21.3113    5.7224 H         1 UNK         0.0808 
    150 H150      -46.9989  -20.2234    6.1294 H         1 UNK         0.0808 
    151 H151      -45.7463  -20.5687    7.3104 H         1 UNK         0.0808 
    152 H152      -49.0817  -22.7610    6.3984 H         1 UNK         0.3098 
    153 H153      -49.6651  -22.8395    3.7842 H         1 UNK         0.0720 
    154 H154      -49.6287  -24.8138    2.2408 H         1 UNK         0.0791 
    155 H155      -48.1081  -25.3462    2.9570 H         1 UNK         0.0791 
    156 H156      -48.1865  -23.8239    2.0873 H         1 UNK         0.0791 
    157 H157      -50.8852  -24.1028    5.1398 H         1 UNK         0.3028 
@<TRIPOS>BOND
     1    1    2 1    
     2    1   82 1    
     3    1   83 1    
     4    1   84 1    
     5    2    3 2    
     6    2    4 am   BACKBONE|DICT|INTERRES
     7    4    5 1    
     8    4   85 1    
     9    5    6 1    
    10    5   80 1    
    11    5   86 1    
    12    6    7 1    
    13    6   87 1    
    14    6   88 1    
    15    7    8 1    
    16    8    9 1    
    17    8   89 1    
    18    8   90 1    
    19    9   10 ar   
    20    9   14 ar   
    21   10   11 ar   
    22   10   91 1    
    23   11   12 ar   
    24   11   58 1    
    25   12   13 ar   
    26   12   92 1    
    27   13   14 ar   
    28   13   15 1    
    29   14   93 1    
    30   15   16 1    
    31   15   94 1    
    32   15   95 1    
    33   16   17 1    
    34   17   18 1    
    35   17   96 1    
    36   17   97 1    
    37   18   19 1    
    38   18   22 1    
    39   18   98 1    
    40   19   20 am   BACKBONE|DICT|INTERRES
    41   19   21 2    
    42   20   99 1    
    43   20  100 1    
    44   22   23 am   BACKBONE|DICT|INTERRES
    45   22  101 1    
    46   23   24 2    
    47   23   25 1    
    48   25   26 1    
    49   25   27 1    
    50   25  102 1    
    51   26  103 1    
    52   26  104 1    
    53   26  105 1    
    54   27   28 am   BACKBONE|DICT|INTERRES
    55   27  106 1    
    56   28   29 2    
    57   28   30 1    
    58   30   31 1    
    59   30   32 1    
    60   30  107 1    
    61   31  108 1    
    62   31  109 1    
    63   31  110 1    
    64   32   33 am   BACKBONE|DICT|INTERRES
    65   32  111 1    
    66   33   34 2    
    67   33   35 1    
    68   35   36 1    
    69   35   37 1    
    70   35  112 1    
    71   36  113 1    
    72   36  114 1    
    73   36  115 1    
    74   37   38 am   BACKBONE|DICT|INTERRES
    75   37  116 1    
    76   38   39 2    
    77   38   40 1    
    78   40   41 1    
    79   40   42 1    
    80   40  117 1    
    81   41  118 1    
    82   41  119 1    
    83   41  120 1    
    84   42   43 am   BACKBONE|DICT|INTERRES
    85   42  121 1    
    86   43   44 2    
    87   43   45 1    
    88   45   46 1    
    89   45   47 1    
    90   45  122 1    
    91   46  123 1    
    92   46  124 1    
    93   46  125 1    
    94   47   48 am   BACKBONE|DICT|INTERRES
    95   47  126 1    
    96   48   49 2    
    97   48   50 1    
    98   50   51 1    
    99   50   52 1    
   100   50  127 1    
   101   51  128 1    
   102   51  129 1    
   103   51  130 1    
   104   52   53 am   BACKBONE|DICT|INTERRES
   105   52  131 1    
   106   53   54 2    
   107   53   55 1    
   108   55   56 1    
   109   55   59 1    
   110   55  132 1    
   111   56   57 1    
   112   56  133 1    
   113   56  134 1    
   114   57   58 1    
   115   58  135 1    
   116   58  136 1    
   117   59   60 am   BACKBONE|DICT|INTERRES
   118   59  137 1    
   119   60   61 2    
   120   60   62 1    
   121   62   63 1    
   122   62   64 1    
   123   62  138 1    
   124   63  139 1    
   125   63  140 1    
   126   63  141 1    
   127   64   65 am   BACKBONE|DICT|INTERRES
   128   64  142 1    
   129   65   66 2    
   130   65   67 1    
   131   67   68 1    
   132   67   69 1    
   133   67  143 1    
   134   68  144 1    
   135   68  145 1    
   136   68  146 1    
   137   69   70 am   BACKBONE|DICT|INTERRES
   138   69  147 1    
   139   70   71 2    
   140   70   72 1    
   141   72   73 1    
   142   72   74 1    
   143   72  148 1    
   144   73  149 1    
   145   73  150 1    
   146   73  151 1    
   147   74   75 am   BACKBONE|DICT|INTERRES
   148   74  152 1    
   149   75   76 2    
   150   75   77 1    
   151   77   78 1    
   152   77   79 1    
   153   77  153 1    
   154   78  154 1    
   155   78  155 1    
   156   78  156 1    
   157   79   80 am   BACKBONE|DICT|INTERRES
   158   79  157 1    
   159   80   81 2    
@<TRIPOS>SUBSTRUCTURE
     1 UNK         1 GROUP             0       ****    0 ROOT    
