@<TRIPOS>MOLECULE
3R207
157   159    1
SMALL
USER_CHARGES


@<TRIPOS>ATOM
      1 CA        -49.6961  -32.8871    4.6110 C.3       0 UNK        -0.1975 
      2 C         -49.4818  -31.4069    4.8906 C.2       0 UNK         0.4852 
      3 O         -50.2678  -30.5772    4.4317 O.2       0 UNK        -0.5216 
      4 N         -48.4254  -31.0707    5.6379 N.am      1 UNK        -0.4461 
      5 CA        -48.0374  -29.7095    5.9995 C.3       1 UNK         0.0864 
      6 C6        -48.8617  -29.1964    7.2131 C.3       14 UNK        -0.0898 
      7 S7        -48.8863  -27.3815    7.3473 S.3       14 UNK        -0.2598 
      8 C8        -50.3544  -26.9510    6.3625 C.3       14 UNK         0.0286 
      9 C9        -51.5871  -26.7413    7.2311 C.ar      14 UNK        -0.0844 
     10 C10       -52.0258  -25.4471    7.5334 C.ar      14 UNK        -0.0881 
     11 C11       -53.1950  -25.2460    8.2738 C.ar      14 UNK        -0.0643 
     12 C12       -53.9235  -26.3528    8.7190 C.ar      14 UNK        -0.0930 
     13 C13       -53.4931  -27.6497    8.4280 C.ar      14 UNK        -0.0827 
     14 C14       -52.3241  -27.8384    7.6863 C.ar      14 UNK        -0.1249 
     15 C15       -54.3215  -28.8432    8.8723 C.3       14 UNK         0.0141 
     16 S16       -54.0434  -29.2373   10.6237 S.3       14 UNK        -0.2313 
     17 C17       -55.2499  -30.5884   10.8351 C.3       14 UNK        -0.0915 
     18 CA        -56.6130  -30.0867   11.3783 C.3       13 UNK         0.0968 
     19 C         -57.6671  -31.2270   11.3487 C.2       13 UNK         0.5732 
     20 N         -58.3935  -31.3724   10.2490 N.am      13 UNK        -0.7310 
     21 O         -57.8019  -32.0030   12.2936 O.2       13 UNK        -0.5035 
     22 N         -56.4664  -29.4977   12.7151 N.am      13 UNK        -0.4233 
     23 C         -57.4051  -28.7942   13.3609 C.2       13 UNK         0.4989 
     24 O         -58.4883  -28.4807   12.8648 O.2       13 UNK        -0.4996 
     25 CA        -57.0975  -28.3720   14.8108 C.3       12 UNK         0.0216 
     26 CB        -57.9263  -29.2104   15.7989 C.3       12 UNK        -0.1964 
     27 N         -55.6774  -28.4891   15.1602 N.am      12 UNK        -0.4276 
     28 C         -54.7376  -27.6024   14.8101 C.2       12 UNK         0.5020 
     29 O         -54.9691  -26.5650   14.1861 O.2       12 UNK        -0.5489 
     30 CA        -53.2917  -27.9741   15.1759 C.3       11 UNK         0.0294 
     31 CB        -52.5994  -28.6640   13.9898 C.3       11 UNK        -0.2019 
     32 N         -52.5008  -26.8118   15.5777 N.am      11 UNK        -0.4493 
     33 C         -52.6694  -26.1311   16.7208 C.2       11 UNK         0.4932 
     34 O         -53.5517  -26.3860   17.5431 O.2       11 UNK        -0.5029 
     35 CA        -51.6501  -25.0076   17.0065 C.3       10 UNK         0.0280 
     36 CB        -51.6384  -24.5577   18.4829 C.3       10 UNK        -0.1976 
     37 N         -50.2985  -25.3538   16.5501 N.am      10 UNK        -0.4242 
     38 C         -49.5472  -26.3977   16.9389 C.2       10 UNK         0.5072 
     39 O         -49.8466  -27.1573   17.8611 O.2       10 UNK        -0.5224 
     40 CA        -48.2549  -26.6682   16.1493 C.3       9 UNK         0.0343 
     41 CB        -48.3464  -28.0148   15.4088 C.3       9 UNK        -0.2003 
     42 N         -47.9731  -25.6140   15.1703 N.am      9 UNK        -0.4272 
     43 C         -46.9818  -24.7210   15.2817 C.2       9 UNK         0.4988 
     44 O         -46.1800  -24.6932   16.2161 O.2       9 UNK        -0.5108 
     45 CA        -46.8543  -23.6808   14.1591 C.3       8 UNK         0.0248 
     46 CB        -46.0869  -24.2683   12.9640 C.3       8 UNK        -0.2001 
     47 N         -48.1349  -23.1365   13.6999 N.am      8 UNK        -0.4140 
     48 C         -48.9338  -22.3407   14.4261 C.2       8 UNK         0.5028 
     49 O         -48.7304  -22.0589   15.6068 O.2       8 UNK        -0.5428 
     50 CA        -50.1644  -21.7552   13.7201 C.3       7 UNK         0.0264 
     51 CB        -49.7535  -20.6141   12.7743 C.3       7 UNK        -0.1988 
     52 N         -50.8666  -22.7836   12.9556 N.am      7 UNK        -0.4454 
     53 C         -52.0604  -23.3000   13.2772 C.2       7 UNK         0.5027 
     54 O         -52.7313  -22.9180   14.2364 O.2       7 UNK        -0.5083 
     55 CA        -52.6102  -24.4431   12.3926 C.3       6 UNK         0.0844 
     56 C56       -53.6455  -23.9095   11.3722 C.3       14 UNK        -0.0967 
     57 S57       -52.8870  -23.0391    9.9496 S.3       14 UNK        -0.2604 
     58 C58       -53.7055  -23.8348    8.5325 C.3       14 UNK         0.0134 
     59 N         -51.5747  -25.2462   11.7387 N.am      6 UNK        -0.4116 
     60 C         -50.5906  -25.9136   12.3500 C.2       5 UNK         0.5034 
     61 O         -50.4726  -26.0019   13.5727 O.2       5 UNK        -0.5045 
     62 CA        -49.5158  -26.5343   11.4438 C.3       5 UNK         0.0224 
     63 CB        -49.9114  -27.9703   11.0660 C.3       5 UNK        -0.1978 
     64 N         -49.2261  -25.7772   10.2175 N.am      5 UNK        -0.4737 
     65 C         -48.9233  -24.4732   10.1274 C.2       4 UNK         0.5027 
     66 O         -48.9108  -23.7031   11.0881 O.2       4 UNK        -0.5211 
     67 CA        -48.5466  -23.9748    8.7245 C.3       4 UNK         0.0297 
     68 CB        -48.5115  -22.4358    8.6104 C.3       4 UNK        -0.1993 
     69 N         -47.2943  -24.6044    8.2903 N.am      4 UNK        -0.4486 
     70 C         -46.0585  -24.4106    8.7763 C.2       3 UNK         0.4961 
     71 O         -45.7580  -23.5124    9.5612 O.2       3 UNK        -0.5105 
     72 CA        -44.9617  -25.4066    8.3480 C.3       3 UNK         0.0299 
     73 CB        -44.3837  -26.1224    9.5816 C.3       3 UNK        -0.1972 
     74 N         -45.4150  -26.4252    7.3946 N.am      3 UNK        -0.4305 
     75 C         -45.5337  -26.2544    6.0704 C.2       2 UNK         0.5006 
     76 O         -45.2808  -25.1936    5.4992 O.2       2 UNK        -0.5106 
     77 CA        -46.0278  -27.4659    5.2552 C.3       2 UNK         0.0296 
     78 CB        -45.4250  -27.5012    3.8387 C.3       2 UNK        -0.2002 
     79 N         -45.7142  -28.7282    5.9386 N.am      2 UNK        -0.4032 
     80 C         -46.5198  -29.7443    6.2848 C.2       1 UNK         0.5000 
     81 O         -46.0635  -30.7413    6.8492 O.2       1 UNK        -0.5238 
     82 H82       -48.9354  -33.5059    5.0863 H         1 UNK         0.0889 
     83 H83       -49.6644  -33.0746    3.5382 H         1 UNK         0.0889 
     84 H84       -50.6703  -33.2017    4.9838 H         1 UNK         0.0889 
     85 H85       -47.7807  -31.7757    5.9758 H         1 UNK         0.3028 
     86 H86       -48.2359  -29.0933    5.1232 H         1 UNK         0.0864 
     87 H87       -49.8923  -29.5420    7.1423 H         1 UNK         0.0720 
     88 H88       -48.4861  -29.6133    8.1493 H         1 UNK         0.0720 
     89 H89       -50.5493  -27.7239    5.6170 H         1 UNK         0.0814 
     90 H90       -50.1361  -26.0433    5.7979 H         1 UNK         0.0814 
     91 H91       -51.4787  -24.5904    7.1654 H         1 UNK         0.1469 
     92 H92       -54.8404  -26.2098    9.2739 H         1 UNK         0.1381 
     93 H93       -52.0042  -28.8411    7.4426 H         1 UNK         0.1206 
     94 H94       -55.3797  -28.6321    8.7109 H         1 UNK         0.0813 
     95 H95       -54.0854  -29.7178    8.2639 H         1 UNK         0.0813 
     96 H96       -54.8182  -31.3277   11.5122 H         1 UNK         0.0638 
     97 H97       -55.3765  -31.0979    9.8779 H         1 UNK         0.0638 
     98 H98       -56.9698  -29.2938   10.7178 H         1 UNK         0.0568 
     99 H99       -59.0718  -32.1169   10.2065 H         1 UNK         0.3450 
    100 H100      -58.2849  -30.7496    9.4639 H         1 UNK         0.3450 
    101 H101      -55.6106  -29.7149   13.1993 H         1 UNK         0.2987 
    102 H102      -57.3984  -27.3272   14.9160 H         1 UNK         0.0766 
    103 H103      -57.7667  -28.8858   16.8273 H         1 UNK         0.0798 
    104 H104      -57.6790  -30.2711   15.7372 H         1 UNK         0.0798 
    105 H105      -58.9935  -29.1137   15.5936 H         1 UNK         0.0798 
    106 H106      -55.4056  -29.3120   15.6801 H         1 UNK         0.3198 
    107 H107      -53.3059  -28.6689   16.0186 H         1 UNK         0.0843 
    108 H108      -53.1113  -29.5877   13.7182 H         1 UNK         0.0831 
    109 H109      -51.5676  -28.9247   14.2255 H         1 UNK         0.0831 
    110 H110      -52.5916  -28.0265   13.1050 H         1 UNK         0.0831 
    111 H111      -51.7662  -26.5189   14.9404 H         1 UNK         0.3133 
    112 H112      -51.9631  -24.1519   16.4098 H         1 UNK         0.0566 
    113 H113      -50.9135  -23.7607   18.6483 H         1 UNK         0.0814 
    114 H114      -52.6146  -24.1735   18.7809 H         1 UNK         0.0814 
    115 H115      -51.3944  -25.3795   19.1566 H         1 UNK         0.0814 
    116 H116      -49.9503  -24.8046   15.7783 H         1 UNK         0.3091 
    117 H117      -47.4468  -26.7412   16.8797 H         1 UNK         0.0702 
    118 H118      -47.4258  -28.2317   14.8673 H         1 UNK         0.0785 
    119 H119      -49.1679  -28.0312   14.6926 H         1 UNK         0.0785 
    120 H120      -48.5103  -28.8356   16.1083 H         1 UNK         0.0785 
    121 H121      -48.6021  -25.5657   14.3775 H         1 UNK         0.2998 
    122 H122      -46.2683  -22.8480   14.5540 H         1 UNK         0.0697 
    123 H123      -45.1270  -24.6817   13.2765 H         1 UNK         0.0825 
    124 H124      -45.8790  -23.5009   12.2190 H         1 UNK         0.0825 
    125 H125      -46.6432  -25.0665   12.4725 H         1 UNK         0.0825 
    126 H126      -48.3756  -23.3086   12.7239 H         1 UNK         0.3029 
    127 H127      -50.8170  -21.3355   14.4887 H         1 UNK         0.0897 
    128 H128      -50.6270  -20.1491   12.3170 H         1 UNK         0.0792 
    129 H129      -49.2151  -19.8337   13.3137 H         1 UNK         0.0792 
    130 H130      -49.1046  -20.9646   11.9702 H         1 UNK         0.0792 
    131 H131      -50.3688  -23.1626   12.1536 H         1 UNK         0.3086 
    132 H132      -53.1338  -25.1176   13.0705 H         1 UNK         0.0583 
    133 H133      -54.3603  -23.2393   11.8544 H         1 UNK         0.1020 
    134 H134      -54.2454  -24.7453   11.0141 H         1 UNK         0.1020 
    135 H135      -54.7851  -23.8374    8.6911 H         1 UNK         0.0694 
    136 H136      -53.5352  -23.2223    7.6458 H         1 UNK         0.0694 
    137 H137      -51.5742  -25.2169   10.7290 H         1 UNK         0.2989 
    138 H138      -48.5922  -26.5755   12.0235 H         1 UNK         0.1055 
    139 H139      -50.1145  -28.5691   11.9551 H         1 UNK         0.0806 
    140 H140      -49.1141  -28.4711   10.5167 H         1 UNK         0.0806 
    141 H141      -50.8093  -27.9922   10.4459 H         1 UNK         0.0806 
    142 H142      -49.2107  -26.3218    9.3637 H         1 UNK         0.3061 
    143 H143      -49.3197  -24.3279    8.0430 H         1 UNK         0.0734 
    144 H144      -49.4950  -22.0145    8.8223 H         1 UNK         0.0832 
    145 H145      -47.8144  -21.9828    9.3154 H         1 UNK         0.0832 
    146 H146      -48.2295  -22.1181    7.6070 H         1 UNK         0.0832 
    147 H147      -47.4088  -25.3838    7.6574 H         1 UNK         0.3156 
    148 H148      -44.1609  -24.8258    7.8865 H         1 UNK         0.0589 
    149 H149      -45.1436  -26.7057   10.1028 H         1 UNK         0.0808 
    150 H150      -43.5713  -26.7952    9.3073 H         1 UNK         0.0808 
    151 H151      -43.9778  -25.4062   10.2975 H         1 UNK         0.0808 
    152 H152      -45.6641  -27.3236    7.7830 H         1 UNK         0.3098 
    153 H153      -47.0990  -27.3155    5.1477 H         1 UNK         0.0720 
    154 H154      -45.8031  -28.3500    3.2686 H         1 UNK         0.0791 
    155 H155      -44.3373  -27.5741    3.8658 H         1 UNK         0.0791 
    156 H156      -45.6790  -26.6006    3.2780 H         1 UNK         0.0791 
    157 H157      -44.7362  -28.8362    6.1690 H         1 UNK         0.3028 
@<TRIPOS>BOND
     1    1    2 1    
     2    1   82 1    
     3    1   83 1    
     4    1   84 1    
     5    2    3 2    
     6    2    4 am   BACKBONE|DICT|INTERRES
     7    4    5 1    
     8    4   85 1    
     9    5    6 1    
    10    5   80 1    
    11    5   86 1    
    12    6    7 1    
    13    6   87 1    
    14    6   88 1    
    15    7    8 1    
    16    8    9 1    
    17    8   89 1    
    18    8   90 1    
    19    9   10 ar   
    20    9   14 ar   
    21   10   11 ar   
    22   10   91 1    
    23   11   12 ar   
    24   11   58 1    
    25   12   13 ar   
    26   12   92 1    
    27   13   14 ar   
    28   13   15 1    
    29   14   93 1    
    30   15   16 1    
    31   15   94 1    
    32   15   95 1    
    33   16   17 1    
    34   17   18 1    
    35   17   96 1    
    36   17   97 1    
    37   18   19 1    
    38   18   22 1    
    39   18   98 1    
    40   19   20 am   BACKBONE|DICT|INTERRES
    41   19   21 2    
    42   20   99 1    
    43   20  100 1    
    44   22   23 am   BACKBONE|DICT|INTERRES
    45   22  101 1    
    46   23   24 2    
    47   23   25 1    
    48   25   26 1    
    49   25   27 1    
    50   25  102 1    
    51   26  103 1    
    52   26  104 1    
    53   26  105 1    
    54   27   28 am   BACKBONE|DICT|INTERRES
    55   27  106 1    
    56   28   29 2    
    57   28   30 1    
    58   30   31 1    
    59   30   32 1    
    60   30  107 1    
    61   31  108 1    
    62   31  109 1    
    63   31  110 1    
    64   32   33 am   BACKBONE|DICT|INTERRES
    65   32  111 1    
    66   33   34 2    
    67   33   35 1    
    68   35   36 1    
    69   35   37 1    
    70   35  112 1    
    71   36  113 1    
    72   36  114 1    
    73   36  115 1    
    74   37   38 am   BACKBONE|DICT|INTERRES
    75   37  116 1    
    76   38   39 2    
    77   38   40 1    
    78   40   41 1    
    79   40   42 1    
    80   40  117 1    
    81   41  118 1    
    82   41  119 1    
    83   41  120 1    
    84   42   43 am   BACKBONE|DICT|INTERRES
    85   42  121 1    
    86   43   44 2    
    87   43   45 1    
    88   45   46 1    
    89   45   47 1    
    90   45  122 1    
    91   46  123 1    
    92   46  124 1    
    93   46  125 1    
    94   47   48 am   BACKBONE|DICT|INTERRES
    95   47  126 1    
    96   48   49 2    
    97   48   50 1    
    98   50   51 1    
    99   50   52 1    
   100   50  127 1    
   101   51  128 1    
   102   51  129 1    
   103   51  130 1    
   104   52   53 am   BACKBONE|DICT|INTERRES
   105   52  131 1    
   106   53   54 2    
   107   53   55 1    
   108   55   56 1    
   109   55   59 1    
   110   55  132 1    
   111   56   57 1    
   112   56  133 1    
   113   56  134 1    
   114   57   58 1    
   115   58  135 1    
   116   58  136 1    
   117   59   60 am   BACKBONE|DICT|INTERRES
   118   59  137 1    
   119   60   61 2    
   120   60   62 1    
   121   62   63 1    
   122   62   64 1    
   123   62  138 1    
   124   63  139 1    
   125   63  140 1    
   126   63  141 1    
   127   64   65 am   BACKBONE|DICT|INTERRES
   128   64  142 1    
   129   65   66 2    
   130   65   67 1    
   131   67   68 1    
   132   67   69 1    
   133   67  143 1    
   134   68  144 1    
   135   68  145 1    
   136   68  146 1    
   137   69   70 am   BACKBONE|DICT|INTERRES
   138   69  147 1    
   139   70   71 2    
   140   70   72 1    
   141   72   73 1    
   142   72   74 1    
   143   72  148 1    
   144   73  149 1    
   145   73  150 1    
   146   73  151 1    
   147   74   75 am   BACKBONE|DICT|INTERRES
   148   74  152 1    
   149   75   76 2    
   150   75   77 1    
   151   77   78 1    
   152   77   79 1    
   153   77  153 1    
   154   78  154 1    
   155   78  155 1    
   156   78  156 1    
   157   79   80 am   BACKBONE|DICT|INTERRES
   158   79  157 1    
   159   80   81 2    
@<TRIPOS>SUBSTRUCTURE
     1 UNK         1 GROUP             0       ****    0 ROOT    
