@<TRIPOS>MOLECULE
3R207
157   159    1
SMALL
USER_CHARGES


@<TRIPOS>ATOM
      1 CA        -48.0015  -32.2902    4.4315 C.3       0 UNK        -0.1975 
      2 C         -48.1802  -30.8803    3.8879 C.2       0 UNK         0.4852 
      3 O         -47.4336  -30.4682    2.9996 O.2       0 UNK        -0.5216 
      4 N         -49.1661  -30.1410    4.4150 N.am      1 UNK        -0.4461 
      5 CA        -49.4918  -28.7640    4.0199 C.3       1 UNK         0.0864 
      6 C6        -50.8675  -28.3054    4.5669 C.3       14 UNK        -0.0898 
      7 S7        -52.2772  -29.2974    3.9538 S.3       14 UNK        -0.2598 
      8 C8        -52.4846  -30.6246    5.1929 C.3       14 UNK         0.0286 
      9 C9        -52.7164  -30.0957    6.6015 C.ar      14 UNK        -0.0844 
     10 C10       -51.6461  -29.9966    7.4949 C.ar      14 UNK        -0.0881 
     11 C11       -51.8342  -29.4798    8.7777 C.ar      14 UNK        -0.0643 
     12 C12       -53.1139  -29.0953    9.1835 C.ar      14 UNK        -0.0930 
     13 C13       -54.2005  -29.2228    8.3118 C.ar      14 UNK        -0.0827 
     14 C14       -53.9962  -29.7161    7.0187 C.ar      14 UNK        -0.1249 
     15 C15       -55.5898  -28.8247    8.7808 C.3       14 UNK         0.0141 
     16 S16       -56.2716  -30.0945    9.8907 S.3       14 UNK        -0.2313 
     17 C17       -57.5135  -29.1390   10.8260 C.3       14 UNK        -0.0915 
     18 CA        -56.9024  -28.1771   11.8853 C.3       13 UNK         0.0968 
     19 C         -58.0116  -27.4635   12.7103 C.2       13 UNK         0.5732 
     20 N         -58.0131  -27.5308   14.0375 N.am      13 UNK        -0.7310 
     21 O         -58.8856  -26.8206   12.1334 O.2       13 UNK        -0.5035 
     22 N         -55.8937  -28.8386   12.7277 N.am      13 UNK        -0.4233 
     23 C         -54.6725  -28.3559   12.9764 C.2       13 UNK         0.4989 
     24 O         -54.2095  -27.3329   12.4681 O.2       13 UNK        -0.4996 
     25 CA        -53.8335  -29.1403   13.9982 C.3       12 UNK         0.0216 
     26 CB        -52.3602  -29.2441   13.5658 C.3       12 UNK        -0.1964 
     27 N         -53.9032  -28.5045   15.3125 N.am      12 UNK        -0.4276 
     28 C         -54.9968  -28.4295   16.0841 C.2       12 UNK         0.5020 
     29 O         -56.0783  -28.9438   15.7928 O.2       12 UNK        -0.5489 
     30 CA        -54.8669  -27.6388   17.3973 C.3       11 UNK         0.0294 
     31 CB        -54.5247  -28.5820   18.5612 C.3       11 UNK        -0.2019 
     32 N         -53.8604  -26.5768   17.3241 N.am      11 UNK        -0.4493 
     33 C         -53.9823  -25.4508   16.6110 C.2       11 UNK         0.4932 
     34 O         -54.9956  -25.1518   15.9794 O.2       11 UNK        -0.5029 
     35 CA        -52.7740  -24.5007   16.5789 C.3       10 UNK         0.0280 
     36 CB        -52.7675  -23.5633   17.8014 C.3       10 UNK        -0.1976 
     37 N         -51.4736  -25.1607   16.3985 N.am      10 UNK        -0.4242 
     38 C         -50.7928  -25.9585   17.2343 C.2       10 UNK         0.5072 
     39 O         -51.2320  -26.3652   18.3110 O.2       10 UNK        -0.5224 
     40 CA        -49.3796  -26.3782   16.7904 C.3       9 UNK         0.0343 
     41 CB        -49.4356  -27.6627   15.9476 C.3       9 UNK        -0.2003 
     42 N         -48.6838  -25.3252   16.0429 N.am      9 UNK        -0.4272 
     43 C         -48.2820  -24.1578   16.5700 C.2       9 UNK         0.4988 
     44 O         -48.3563  -23.8858   17.7690 O.2       9 UNK        -0.5108 
     45 CA        -47.7259  -23.1025   15.5970 C.3       8 UNK         0.0248 
     46 CB        -46.2431  -23.3661   15.2903 C.3       8 UNK        -0.2001 
     47 N         -48.4927  -23.0197   14.3498 N.am      8 UNK        -0.4140 
     48 C         -49.7668  -22.6043   14.2720 C.2       8 UNK         0.5028 
     49 O         -50.4048  -22.1677   15.2298 O.2       8 UNK        -0.5428 
     50 CA        -50.4648  -22.7178   12.9061 C.3       7 UNK         0.0264 
     51 CB        -50.1696  -21.4826   12.0407 C.3       7 UNK        -0.1988 
     52 N         -50.0981  -23.9298   12.1709 N.am      7 UNK        -0.4454 
     53 C         -50.3600  -25.1836   12.5700 C.2       7 UNK         0.5027 
     54 O         -50.9911  -25.4565   13.5905 O.2       7 UNK        -0.5083 
     55 CA        -49.7463  -26.3186   11.7270 C.3       6 UNK         0.0844 
     56 C56       -50.5689  -26.5975   10.4428 C.3       14 UNK        -0.0967 
     57 S57       -49.7362  -27.7987    9.3423 S.3       14 UNK        -0.2604 
     58 C58       -50.6423  -29.3299    9.7063 C.3       14 UNK         0.0134 
     59 N         -48.3393  -26.0405   11.4389 N.am      6 UNK        -0.4116 
     60 C         -47.3480  -26.0246   12.3371 C.2       5 UNK         0.5034 
     61 O         -47.5010  -26.2484   13.5370 O.2       5 UNK        -0.5045 
     62 CA        -45.9541  -25.6612   11.7994 C.3       5 UNK         0.0224 
     63 CB        -45.2250  -26.9191   11.3015 C.3       5 UNK        -0.1978 
     64 N         -46.0109  -24.6686   10.7210 N.am      5 UNK        -0.4737 
     65 C         -46.4239  -23.4040   10.8852 C.2       4 UNK         0.5027 
     66 O         -46.7579  -22.9284   11.9698 O.2       4 UNK        -0.5211 
     67 CA        -46.5415  -22.5542    9.6117 C.3       4 UNK         0.0297 
     68 CB        -45.1587  -22.0816    9.1364 C.3       4 UNK        -0.1993 
     69 N         -47.2252  -23.2619    8.5248 N.am      4 UNK        -0.4486 
     70 C         -48.5031  -23.6592    8.5512 C.2       3 UNK         0.4961 
     71 O         -49.2419  -23.5038    9.5215 O.2       3 UNK        -0.5105 
     72 CA        -49.0562  -24.3629    7.3013 C.3       3 UNK         0.0299 
     73 CB        -49.1582  -23.3960    6.1055 C.3       3 UNK        -0.1972 
     74 N         -48.3514  -25.5987    6.9399 N.am      3 UNK        -0.4305 
     75 C         -47.0883  -25.7558    6.5160 C.2       2 UNK         0.5006 
     76 O         -46.2715  -24.8391    6.4140 O.2       2 UNK        -0.5106 
     77 CA        -46.6600  -27.1857    6.1405 C.3       2 UNK         0.0296 
     78 CB        -46.0571  -27.8983    7.3626 C.3       2 UNK        -0.2002 
     79 N         -47.7411  -28.0078    5.5829 N.am      2 UNK        -0.4032 
     80 C         -48.3938  -27.7593    4.4344 C.2       1 UNK         0.5000 
     81 O         -48.1602  -26.7910    3.7090 O.2       1 UNK        -0.5238 
     82 H82       -48.7293  -32.5254    5.2079 H         1 UNK         0.0889 
     83 H83       -47.0043  -32.4047    4.8557 H         1 UNK         0.0889 
     84 H84       -48.1159  -33.0182    3.6288 H         1 UNK         0.0889 
     85 H85       -49.7604  -30.5467    5.1202 H         1 UNK         0.3028 
     86 H86       -49.5421  -28.7420    2.9288 H         1 UNK         0.0864 
     87 H87       -50.8682  -28.2690    5.6552 H         1 UNK         0.0720 
     88 H88       -51.0617  -27.2785    4.2500 H         1 UNK         0.0720 
     89 H89       -53.3347  -31.2412    4.8968 H         1 UNK         0.0814 
     90 H90       -51.6210  -31.2893    5.1694 H         1 UNK         0.0814 
     91 H91       -50.6542  -30.2949    7.1877 H         1 UNK         0.1469 
     92 H92       -53.2695  -28.7024   10.1789 H         1 UNK         0.1381 
     93 H93       -54.8308  -29.8049    6.3364 H         1 UNK         0.1206 
     94 H94       -55.5263  -27.8643    9.2922 H         1 UNK         0.0813 
     95 H95       -56.2647  -28.6819    7.9355 H         1 UNK         0.0813 
     96 H96       -58.1771  -29.8576   11.3103 H         1 UNK         0.0638 
     97 H97       -58.1308  -28.5864   10.1154 H         1 UNK         0.0638 
     98 H98       -56.4220  -27.3676   11.3354 H         1 UNK         0.0568 
     99 H99       -58.7387  -27.0546   14.5487 H         1 UNK         0.3450 
    100 H100      -57.3010  -28.0490   14.5422 H         1 UNK         0.3450 
    101 H101      -56.2081  -29.6572   13.2287 H         1 UNK         0.2987 
    102 H102      -54.2319  -30.1536   14.0845 H         1 UNK         0.0766 
    103 H103      -51.7706  -29.8077   14.2891 H         1 UNK         0.0798 
    104 H104      -51.8984  -28.2627   13.4480 H         1 UNK         0.0798 
    105 H105      -52.2801  -29.7631   12.6110 H         1 UNK         0.0798 
    106 H106      -53.0803  -28.0081   15.6189 H         1 UNK         0.3198 
    107 H107      -55.8360  -27.1778   17.6009 H         1 UNK         0.0843 
    108 H108      -55.2684  -29.3752   18.6517 H         1 UNK         0.0831 
    109 H109      -54.5049  -28.0483   19.5116 H         1 UNK         0.0831 
    110 H110      -53.5534  -29.0591   18.4238 H         1 UNK         0.0831 
    111 H111      -52.9900  -26.7090   17.8364 H         1 UNK         0.3133 
    112 H112      -52.8957  -23.8751   15.6931 H         1 UNK         0.0566 
    113 H113      -51.9551  -22.8389   17.7360 H         1 UNK         0.0814 
    114 H114      -53.6998  -23.0007   17.8647 H         1 UNK         0.0814 
    115 H115      -52.6549  -24.1104   18.7378 H         1 UNK         0.0814 
    116 H116      -51.0608  -25.0121   15.4812 H         1 UNK         0.3091 
    117 H117      -48.8002  -26.5882   17.6918 H         1 UNK         0.0702 
    118 H118      -48.4345  -28.0123   15.6946 H         1 UNK         0.0785 
    119 H119      -49.9795  -27.5132   15.0150 H         1 UNK         0.0785 
    120 H120      -49.9324  -28.4672   16.4916 H         1 UNK         0.0785 
    121 H121      -48.5037  -25.5056   15.0595 H         1 UNK         0.2998 
    122 H122      -47.7973  -22.1305   16.0896 H         1 UNK         0.0697 
    123 H123      -46.0939  -24.3307   14.8065 H         1 UNK         0.0825 
    124 H124      -45.6514  -23.3678   16.2066 H         1 UNK         0.0825 
    125 H125      -45.8293  -22.5964   14.6385 H         1 UNK         0.0825 
    126 H126      -48.0083  -23.2713   13.4931 H         1 UNK         0.3029 
    127 H127      -51.5407  -22.7574   13.0901 H         1 UNK         0.0897 
    128 H128      -50.7270  -21.5131   11.1042 H         1 UNK         0.0792 
    129 H129      -50.4533  -20.5652   12.5582 H         1 UNK         0.0792 
    130 H130      -49.1097  -21.4062   11.7947 H         1 UNK         0.0792 
    131 H131      -49.6157  -23.7897   11.2841 H         1 UNK         0.3086 
    132 H132      -49.7738  -27.2248   12.3362 H         1 UNK         0.0583 
    133 H133      -51.5663  -26.9572   10.7028 H         1 UNK         0.1020 
    134 H134      -50.7267  -25.6811    9.8725 H         1 UNK         0.1020 
    135 H135      -49.9673  -30.1771    9.5757 H         1 UNK         0.0694 
    136 H136      -50.9495  -29.3459   10.7516 H         1 UNK         0.0694 
    137 H137      -48.1176  -25.8330   10.4778 H         1 UNK         0.2989 
    138 H138      -45.3812  -25.2336   12.6250 H         1 UNK         0.1055 
    139 H139      -45.1408  -27.6598   12.0981 H         1 UNK         0.0806 
    140 H140      -44.2128  -26.6871   10.9696 H         1 UNK         0.0806 
    141 H141      -45.7514  -27.3931   10.4722 H         1 UNK         0.0806 
    142 H142      -45.7496  -24.9729    9.7944 H         1 UNK         0.3061 
    143 H143      -47.1360  -21.6720    9.8592 H         1 UNK         0.0734 
    144 H144      -44.6340  -21.5496    9.9314 H         1 UNK         0.0832 
    145 H145      -44.5266  -22.9155    8.8287 H         1 UNK         0.0832 
    146 H146      -45.2435  -21.3972    8.2921 H         1 UNK         0.0832 
    147 H147      -46.6809  -23.5110    7.7020 H         1 UNK         0.3156 
    148 H148      -50.0732  -24.6735    7.5462 H         1 UNK         0.0589 
    149 H149      -48.1819  -23.0373    5.7786 H         1 UNK         0.0808 
    150 H150      -49.6387  -23.8748    5.2521 H         1 UNK         0.0808 
    151 H151      -49.7547  -22.5200    6.3639 H         1 UNK         0.0808 
    152 H152      -48.9034  -26.4399    7.0352 H         1 UNK         0.3098 
    153 H153      -45.8844  -27.1016    5.3763 H         1 UNK         0.0720 
    154 H154      -45.2353  -27.3194    7.7867 H         1 UNK         0.0791 
    155 H155      -45.6552  -28.8754    7.0937 H         1 UNK         0.0791 
    156 H156      -46.7953  -28.0448    8.1521 H         1 UNK         0.0791 
    157 H157      -47.9883  -28.8396    6.0982 H         1 UNK         0.3028 
@<TRIPOS>BOND
     1    1    2 1    
     2    1   82 1    
     3    1   83 1    
     4    1   84 1    
     5    2    3 2    
     6    2    4 am   BACKBONE|DICT|INTERRES
     7    4    5 1    
     8    4   85 1    
     9    5    6 1    
    10    5   80 1    
    11    5   86 1    
    12    6    7 1    
    13    6   87 1    
    14    6   88 1    
    15    7    8 1    
    16    8    9 1    
    17    8   89 1    
    18    8   90 1    
    19    9   10 ar   
    20    9   14 ar   
    21   10   11 ar   
    22   10   91 1    
    23   11   12 ar   
    24   11   58 1    
    25   12   13 ar   
    26   12   92 1    
    27   13   14 ar   
    28   13   15 1    
    29   14   93 1    
    30   15   16 1    
    31   15   94 1    
    32   15   95 1    
    33   16   17 1    
    34   17   18 1    
    35   17   96 1    
    36   17   97 1    
    37   18   19 1    
    38   18   22 1    
    39   18   98 1    
    40   19   20 am   BACKBONE|DICT|INTERRES
    41   19   21 2    
    42   20   99 1    
    43   20  100 1    
    44   22   23 am   BACKBONE|DICT|INTERRES
    45   22  101 1    
    46   23   24 2    
    47   23   25 1    
    48   25   26 1    
    49   25   27 1    
    50   25  102 1    
    51   26  103 1    
    52   26  104 1    
    53   26  105 1    
    54   27   28 am   BACKBONE|DICT|INTERRES
    55   27  106 1    
    56   28   29 2    
    57   28   30 1    
    58   30   31 1    
    59   30   32 1    
    60   30  107 1    
    61   31  108 1    
    62   31  109 1    
    63   31  110 1    
    64   32   33 am   BACKBONE|DICT|INTERRES
    65   32  111 1    
    66   33   34 2    
    67   33   35 1    
    68   35   36 1    
    69   35   37 1    
    70   35  112 1    
    71   36  113 1    
    72   36  114 1    
    73   36  115 1    
    74   37   38 am   BACKBONE|DICT|INTERRES
    75   37  116 1    
    76   38   39 2    
    77   38   40 1    
    78   40   41 1    
    79   40   42 1    
    80   40  117 1    
    81   41  118 1    
    82   41  119 1    
    83   41  120 1    
    84   42   43 am   BACKBONE|DICT|INTERRES
    85   42  121 1    
    86   43   44 2    
    87   43   45 1    
    88   45   46 1    
    89   45   47 1    
    90   45  122 1    
    91   46  123 1    
    92   46  124 1    
    93   46  125 1    
    94   47   48 am   BACKBONE|DICT|INTERRES
    95   47  126 1    
    96   48   49 2    
    97   48   50 1    
    98   50   51 1    
    99   50   52 1    
   100   50  127 1    
   101   51  128 1    
   102   51  129 1    
   103   51  130 1    
   104   52   53 am   BACKBONE|DICT|INTERRES
   105   52  131 1    
   106   53   54 2    
   107   53   55 1    
   108   55   56 1    
   109   55   59 1    
   110   55  132 1    
   111   56   57 1    
   112   56  133 1    
   113   56  134 1    
   114   57   58 1    
   115   58  135 1    
   116   58  136 1    
   117   59   60 am   BACKBONE|DICT|INTERRES
   118   59  137 1    
   119   60   61 2    
   120   60   62 1    
   121   62   63 1    
   122   62   64 1    
   123   62  138 1    
   124   63  139 1    
   125   63  140 1    
   126   63  141 1    
   127   64   65 am   BACKBONE|DICT|INTERRES
   128   64  142 1    
   129   65   66 2    
   130   65   67 1    
   131   67   68 1    
   132   67   69 1    
   133   67  143 1    
   134   68  144 1    
   135   68  145 1    
   136   68  146 1    
   137   69   70 am   BACKBONE|DICT|INTERRES
   138   69  147 1    
   139   70   71 2    
   140   70   72 1    
   141   72   73 1    
   142   72   74 1    
   143   72  148 1    
   144   73  149 1    
   145   73  150 1    
   146   73  151 1    
   147   74   75 am   BACKBONE|DICT|INTERRES
   148   74  152 1    
   149   75   76 2    
   150   75   77 1    
   151   77   78 1    
   152   77   79 1    
   153   77  153 1    
   154   78  154 1    
   155   78  155 1    
   156   78  156 1    
   157   79   80 am   BACKBONE|DICT|INTERRES
   158   79  157 1    
   159   80   81 2    
@<TRIPOS>SUBSTRUCTURE
     1 UNK         1 GROUP             0       ****    0 ROOT    
