@<TRIPOS>MOLECULE
3R207
157   159    1
SMALL
USER_CHARGES


@<TRIPOS>ATOM
      1 CA        -52.0855  -25.0664    1.9835 C.3       0 UNK        -0.1975 
      2 C         -51.0006  -25.8421    2.7167 C.2       0 UNK         0.4852 
      3 O         -50.0249  -26.2604    2.0916 O.2       0 UNK        -0.5216 
      4 N         -51.1721  -26.0376    4.0322 N.am      1 UNK        -0.4461 
      5 CA        -50.2289  -26.7049    4.9395 C.3       1 UNK         0.0864 
      6 C6        -49.9694  -28.1929    4.5552 C.3       14 UNK        -0.0898 
      7 S7        -49.5450  -29.2724    5.9705 S.3       14 UNK        -0.2598 
      8 C8        -51.0772  -30.2293    6.2374 C.3       14 UNK         0.0286 
      9 C9        -51.9213  -29.6455    7.3626 C.ar      14 UNK        -0.0844 
     10 C10       -52.5759  -28.4243    7.1907 C.ar      14 UNK        -0.0881 
     11 C11       -53.3055  -27.8528    8.2359 C.ar      14 UNK        -0.0643 
     12 C12       -53.4594  -28.5586    9.4315 C.ar      14 UNK        -0.0930 
     13 C13       -52.8289  -29.7941    9.6121 C.ar      14 UNK        -0.0827 
     14 C14       -52.0490  -30.3247    8.5786 C.ar      14 UNK        -0.1249 
     15 C15       -52.9902  -30.5583   10.9189 C.3       14 UNK         0.0141 
     16 S16       -52.4865  -29.5603   12.3529 S.3       14 UNK        -0.2313 
     17 C17       -52.5026  -30.8127   13.6777 C.3       14 UNK        -0.0915 
     18 CA        -53.8873  -30.9948   14.3541 C.3       13 UNK         0.0968 
     19 C         -53.8038  -32.0747   15.4727 C.2       13 UNK         0.5732 
     20 N         -53.9434  -31.7274   16.7468 N.am      13 UNK        -0.7310 
     21 O         -53.6115  -33.2512   15.1752 O.2       13 UNK        -0.5035 
     22 N         -54.4754  -29.7091   14.7649 N.am      13 UNK        -0.4233 
     23 C         -55.7557  -29.5247   15.1128 C.2       13 UNK         0.4989 
     24 O         -56.5945  -30.4253   15.1605 O.2       13 UNK        -0.4996 
     25 CA        -56.1789  -28.0883   15.4566 C.3       12 UNK         0.0216 
     26 CB        -56.0038  -27.8188   16.9598 C.3       12 UNK        -0.1964 
     27 N         -55.4446  -27.0825   14.6818 N.am      12 UNK        -0.4276 
     28 C         -55.7028  -26.7941   13.3957 C.2       12 UNK         0.5020 
     29 O         -56.5763  -27.3705   12.7448 O.2       12 UNK        -0.5489 
     30 CA        -54.8639  -25.6999   12.6993 C.3       11 UNK         0.0294 
     31 CB        -55.7326  -24.7859   11.8095 C.3       11 UNK        -0.2019 
     32 N         -54.0213  -24.9029   13.5977 N.am      11 UNK        -0.4493 
     33 C         -54.4037  -24.0886   14.5932 C.2       11 UNK         0.4932 
     34 O         -55.5789  -23.8241   14.8506 O.2       11 UNK        -0.5029 
     35 CA        -53.2750  -23.5096   15.4753 C.3       10 UNK         0.0280 
     36 CB        -53.7781  -23.0724   16.8670 C.3       10 UNK        -0.1976 
     37 N         -52.1146  -24.4029   15.6146 N.am      10 UNK        -0.4242 
     38 C         -52.1194  -25.6793   16.0378 C.2       10 UNK         0.5072 
     39 O         -53.1434  -26.2713   16.3822 O.2       10 UNK        -0.5224 
     40 CA        -50.7876  -26.4528   16.0357 C.3       9 UNK         0.0343 
     41 CB        -50.9600  -27.8307   15.3768 C.3       9 UNK        -0.2003 
     42 N         -49.7307  -25.7311   15.3268 N.am      9 UNK        -0.4272 
     43 C         -48.7215  -25.0708   15.9101 C.2       9 UNK         0.4988 
     44 O         -48.5305  -25.0441   17.1264 O.2       9 UNK        -0.5108 
     45 CA        -47.7684  -24.2851   14.9886 C.3       8 UNK         0.0248 
     46 CB        -46.5257  -25.1282   14.6663 C.3       8 UNK        -0.2001 
     47 N         -48.3788  -23.8306   13.7348 N.am      8 UNK        -0.4140 
     48 C         -49.4369  -23.0142   13.6417 C.2       8 UNK         0.5028 
     49 O         -50.0208  -22.5340   14.6135 O.2       8 UNK        -0.5428 
     50 CA        -49.9808  -22.7429   12.2314 C.3       7 UNK         0.0264 
     51 CB        -49.1978  -21.6121   11.5448 C.3       7 UNK        -0.1988 
     52 N         -50.0078  -23.9339   11.3739 N.am      7 UNK        -0.4454 
     53 C         -50.7553  -25.0223   11.6138 C.2       7 UNK         0.5027 
     54 O         -51.3943  -25.1947   12.6532 O.2       7 UNK        -0.5083 
     55 CA        -50.8093  -26.0882   10.5030 C.3       6 UNK         0.0844 
     56 C56       -51.3730  -25.5332    9.1653 C.3       14 UNK        -0.0967 
     57 S57       -53.1794  -25.2488    9.2518 S.3       14 UNK        -0.2604 
     58 C58       -53.8914  -26.4568    8.0788 C.3       14 UNK         0.0134 
     59 N         -49.5177  -26.7479   10.3232 N.am      6 UNK        -0.4116 
     60 C         -48.9681  -27.6114   11.1887 C.2       5 UNK         0.5034 
     61 O         -49.4141  -27.8518   12.3089 O.2       5 UNK        -0.5045 
     62 CA        -47.7001  -28.3345   10.7198 C.3       5 UNK         0.0224 
     63 CB        -47.9280  -29.0845    9.3937 C.3       5 UNK        -0.1978 
     64 N         -46.6118  -27.3746   10.5644 N.am      5 UNK        -0.4737 
     65 C         -45.6379  -27.1761   11.4625 C.2       4 UNK         0.5027 
     66 O         -45.4983  -27.8541   12.4804 O.2       4 UNK        -0.5211 
     67 CA        -44.6357  -26.0372   11.1876 C.3       4 UNK         0.0297 
     68 CB        -43.2878  -26.6121   10.7221 C.3       4 UNK        -0.1993 
     69 N         -45.1004  -25.0589   10.2009 N.am      4 UNK        -0.4486 
     70 C         -46.1259  -24.2145   10.3762 C.2       3 UNK         0.4961 
     71 O         -46.7823  -24.1363   11.4130 O.2       3 UNK        -0.5105 
     72 CA        -46.5292  -23.3636    9.1594 C.3       3 UNK         0.0299 
     73 CB        -45.7319  -22.0508    9.1293 C.3       3 UNK        -0.1972 
     74 N         -46.3740  -24.0723    7.8824 N.am      3 UNK        -0.4305 
     75 C         -47.0397  -25.1887    7.5579 C.2       2 UNK         0.5006 
     76 O         -47.8492  -25.7438    8.3063 O.2       2 UNK        -0.5106 
     77 CA        -46.7057  -25.8331    6.2046 C.3       2 UNK         0.0296 
     78 CB        -45.5839  -26.8701    6.3770 C.3       2 UNK        -0.2002 
     79 N         -47.8889  -26.4981    5.6615 N.am      2 UNK        -0.4032 
     80 C         -48.9572  -25.8574    5.1727 C.2       1 UNK         0.5000 
     81 O         -48.9816  -24.6391    4.9702 O.2       1 UNK        -0.5238 
     82 H82       -52.8967  -24.7698    2.6482 H         1 UNK         0.0889 
     83 H83       -52.5079  -25.6759    1.1850 H         1 UNK         0.0889 
     84 H84       -51.6653  -24.1648    1.5384 H         1 UNK         0.0889 
     85 H85       -51.9787  -25.6258    4.4798 H         1 UNK         0.3028 
     86 H86       -50.7216  -26.6890    5.9099 H         1 UNK         0.0864 
     87 H87       -50.8525  -28.6053    4.0659 H         1 UNK         0.0720 
     88 H88       -49.1762  -28.2676    3.8089 H         1 UNK         0.0720 
     89 H89       -50.7960  -31.2562    6.4753 H         1 UNK         0.0814 
     90 H90       -51.6679  -30.2898    5.3229 H         1 UNK         0.0814 
     91 H91       -52.4970  -27.9078    6.2466 H         1 UNK         0.1469 
     92 H92       -54.0413  -28.1284   10.2352 H         1 UNK         0.1381 
     93 H93       -51.5479  -31.2730    8.7171 H         1 UNK         0.1206 
     94 H94       -52.4016  -31.4767   10.8982 H         1 UNK         0.0813 
     95 H95       -54.0330  -30.8560   11.0353 H         1 UNK         0.0813 
     96 H96       -51.7599  -30.5115   14.4182 H         1 UNK         0.0638 
     97 H97       -52.1461  -31.7600   13.2691 H         1 UNK         0.0638 
     98 H98       -54.5585  -31.4090   13.5996 H         1 UNK         0.0568 
     99 H99       -53.8906  -32.4375   17.4598 H         1 UNK         0.3450 
    100 H100      -54.1043  -30.7667   17.0007 H         1 UNK         0.3450 
    101 H101      -53.8596  -28.9109   14.7402 H         1 UNK         0.2987 
    102 H102      -57.2414  -27.9912   15.2225 H         1 UNK         0.0766 
    103 H103      -56.3035  -26.8031   17.2189 H         1 UNK         0.0798 
    104 H104      -54.9706  -27.9548   17.2805 H         1 UNK         0.0798 
    105 H105      -56.6186  -28.4994   17.5505 H         1 UNK         0.0798 
    106 H106      -54.7005  -26.5864   15.1657 H         1 UNK         0.3198 
    107 H107      -54.1693  -26.2316   12.0470 H         1 UNK         0.0843 
    108 H108      -55.1342  -24.0096   11.3332 H         1 UNK         0.0831 
    109 H109      -56.5242  -24.2986   12.3791 H         1 UNK         0.0831 
    110 H110      -56.2101  -25.3573   11.0126 H         1 UNK         0.0831 
    111 H111      -53.0191  -25.0253   13.4494 H         1 UNK         0.3133 
    112 H112      -52.9123  -22.6206   14.9575 H         1 UNK         0.0566 
    113 H113      -52.9717  -22.6467   17.4641 H         1 UNK         0.0814 
    114 H114      -54.5538  -22.3102   16.7836 H         1 UNK         0.0814 
    115 H115      -54.2019  -23.9096   17.4230 H         1 UNK         0.0814 
    116 H116      -51.2301  -23.9949   15.3273 H         1 UNK         0.3091 
    117 H117      -50.5085  -26.6097   17.0792 H         1 UNK         0.0702 
    118 H118      -51.6835  -28.4417   15.9177 H         1 UNK         0.0785 
    119 H119      -50.0206  -28.3834   15.3566 H         1 UNK         0.0785 
    120 H120      -51.3094  -27.7338   14.3485 H         1 UNK         0.0785 
    121 H121      -49.8259  -25.6890   14.3191 H         1 UNK         0.2998 
    122 H122      -47.4476  -23.3958   15.5346 H         1 UNK         0.0697 
    123 H123      -46.7877  -26.0214   14.0981 H         1 UNK         0.0825 
    124 H124      -46.0253  -25.4560   15.5784 H         1 UNK         0.0825 
    125 H125      -45.7998  -24.5598   14.0847 H         1 UNK         0.0825 
    126 H126      -47.9220  -24.1202   12.8713 H         1 UNK         0.3029 
    127 H127      -51.0148  -22.4092   12.3458 H         1 UNK         0.0897 
    128 H128      -49.6083  -21.3815   10.5616 H         1 UNK         0.0792 
    129 H129      -49.2445  -20.6966   12.1361 H         1 UNK         0.0792 
    130 H130      -48.1441  -21.8604   11.4214 H         1 UNK         0.0792 
    131 H131      -49.4593  -23.8988   10.5278 H         1 UNK         0.3086 
    132 H132      -51.4966  -26.8654   10.8458 H         1 UNK         0.0583 
    133 H133      -50.8801  -24.6056    8.8698 H         1 UNK         0.1020 
    134 H134      -51.1613  -26.2326    8.3570 H         1 UNK         0.1020 
    135 H135      -54.9707  -26.5016    8.2304 H         1 UNK         0.0694 
    136 H136      -53.7391  -26.0847    7.0646 H         1 UNK         0.0694 
    137 H137      -49.0131  -26.5336    9.4662 H         1 UNK         0.2989 
    138 H138      -47.4483  -29.0782   11.4796 H         1 UNK         0.1055 
    139 H139      -48.7841  -29.7572    9.4666 H         1 UNK         0.0806 
    140 H140      -47.0612  -29.6912    9.1320 H         1 UNK         0.0806 
    141 H141      -48.1190  -28.4077    8.5612 H         1 UNK         0.0806 
    142 H142      -46.6882  -26.7345    9.7838 H         1 UNK         0.3061 
    143 H143      -44.4767  -25.5116   12.1315 H         1 UNK         0.0734 
    144 H144      -42.5408  -25.8276   10.5999 H         1 UNK         0.0832 
    145 H145      -42.8928  -27.3202   11.4521 H         1 UNK         0.0832 
    146 H146      -43.3805  -27.1419    9.7732 H         1 UNK         0.0832 
    147 H147      -44.6244  -25.0507    9.3108 H         1 UNK         0.3156 
    148 H148      -47.5865  -23.1149    9.2689 H         1 UNK         0.0589 
    149 H149      -44.6648  -22.2265    8.9868 H         1 UNK         0.0808 
    150 H150      -46.0752  -21.3961    8.3281 H         1 UNK         0.0808 
    151 H151      -45.8491  -21.5020   10.0650 H         1 UNK         0.0808 
    152 H152      -45.7234  -23.6783    7.2171 H         1 UNK         0.3098 
    153 H153      -46.3789  -25.0613    5.5045 H         1 UNK         0.0720 
    154 H154      -45.3357  -27.3457    5.4278 H         1 UNK         0.0791 
    155 H155      -45.8623  -27.6556    7.0815 H         1 UNK         0.0791 
    156 H156      -44.6715  -26.4043    6.7515 H         1 UNK         0.0791 
    157 H157      -47.9791  -27.4894    5.8427 H         1 UNK         0.3028 
@<TRIPOS>BOND
     1    1    2 1    
     2    1   82 1    
     3    1   83 1    
     4    1   84 1    
     5    2    3 2    
     6    2    4 am   BACKBONE|DICT|INTERRES
     7    4    5 1    
     8    4   85 1    
     9    5    6 1    
    10    5   80 1    
    11    5   86 1    
    12    6    7 1    
    13    6   87 1    
    14    6   88 1    
    15    7    8 1    
    16    8    9 1    
    17    8   89 1    
    18    8   90 1    
    19    9   10 ar   
    20    9   14 ar   
    21   10   11 ar   
    22   10   91 1    
    23   11   12 ar   
    24   11   58 1    
    25   12   13 ar   
    26   12   92 1    
    27   13   14 ar   
    28   13   15 1    
    29   14   93 1    
    30   15   16 1    
    31   15   94 1    
    32   15   95 1    
    33   16   17 1    
    34   17   18 1    
    35   17   96 1    
    36   17   97 1    
    37   18   19 1    
    38   18   22 1    
    39   18   98 1    
    40   19   20 am   BACKBONE|DICT|INTERRES
    41   19   21 2    
    42   20   99 1    
    43   20  100 1    
    44   22   23 am   BACKBONE|DICT|INTERRES
    45   22  101 1    
    46   23   24 2    
    47   23   25 1    
    48   25   26 1    
    49   25   27 1    
    50   25  102 1    
    51   26  103 1    
    52   26  104 1    
    53   26  105 1    
    54   27   28 am   BACKBONE|DICT|INTERRES
    55   27  106 1    
    56   28   29 2    
    57   28   30 1    
    58   30   31 1    
    59   30   32 1    
    60   30  107 1    
    61   31  108 1    
    62   31  109 1    
    63   31  110 1    
    64   32   33 am   BACKBONE|DICT|INTERRES
    65   32  111 1    
    66   33   34 2    
    67   33   35 1    
    68   35   36 1    
    69   35   37 1    
    70   35  112 1    
    71   36  113 1    
    72   36  114 1    
    73   36  115 1    
    74   37   38 am   BACKBONE|DICT|INTERRES
    75   37  116 1    
    76   38   39 2    
    77   38   40 1    
    78   40   41 1    
    79   40   42 1    
    80   40  117 1    
    81   41  118 1    
    82   41  119 1    
    83   41  120 1    
    84   42   43 am   BACKBONE|DICT|INTERRES
    85   42  121 1    
    86   43   44 2    
    87   43   45 1    
    88   45   46 1    
    89   45   47 1    
    90   45  122 1    
    91   46  123 1    
    92   46  124 1    
    93   46  125 1    
    94   47   48 am   BACKBONE|DICT|INTERRES
    95   47  126 1    
    96   48   49 2    
    97   48   50 1    
    98   50   51 1    
    99   50   52 1    
   100   50  127 1    
   101   51  128 1    
   102   51  129 1    
   103   51  130 1    
   104   52   53 am   BACKBONE|DICT|INTERRES
   105   52  131 1    
   106   53   54 2    
   107   53   55 1    
   108   55   56 1    
   109   55   59 1    
   110   55  132 1    
   111   56   57 1    
   112   56  133 1    
   113   56  134 1    
   114   57   58 1    
   115   58  135 1    
   116   58  136 1    
   117   59   60 am   BACKBONE|DICT|INTERRES
   118   59  137 1    
   119   60   61 2    
   120   60   62 1    
   121   62   63 1    
   122   62   64 1    
   123   62  138 1    
   124   63  139 1    
   125   63  140 1    
   126   63  141 1    
   127   64   65 am   BACKBONE|DICT|INTERRES
   128   64  142 1    
   129   65   66 2    
   130   65   67 1    
   131   67   68 1    
   132   67   69 1    
   133   67  143 1    
   134   68  144 1    
   135   68  145 1    
   136   68  146 1    
   137   69   70 am   BACKBONE|DICT|INTERRES
   138   69  147 1    
   139   70   71 2    
   140   70   72 1    
   141   72   73 1    
   142   72   74 1    
   143   72  148 1    
   144   73  149 1    
   145   73  150 1    
   146   73  151 1    
   147   74   75 am   BACKBONE|DICT|INTERRES
   148   74  152 1    
   149   75   76 2    
   150   75   77 1    
   151   77   78 1    
   152   77   79 1    
   153   77  153 1    
   154   78  154 1    
   155   78  155 1    
   156   78  156 1    
   157   79   80 am   BACKBONE|DICT|INTERRES
   158   79  157 1    
   159   80   81 2    
@<TRIPOS>SUBSTRUCTURE
     1 UNK         1 GROUP             0       ****    0 ROOT    
