@<TRIPOS>MOLECULE
3R207
157   159    1
SMALL
USER_CHARGES


@<TRIPOS>ATOM
      1 CA        -50.3717  -28.1916    8.2444 C.3       0 UNK        -0.1975 
      2 C         -50.7884  -27.5513    6.9307 C.2       0 UNK         0.4852 
      3 O         -50.1108  -27.7375    5.9183 O.2       0 UNK        -0.5216 
      4 N         -51.8983  -26.8008    6.9257 N.am      1 UNK        -0.4461 
      5 CA        -52.3894  -26.0632    5.7572 C.3       1 UNK         0.0864 
      6 C6        -53.8041  -25.4716    5.9668 C.3       14 UNK        -0.0898 
      7 S7        -55.0633  -26.7612    6.2482 S.3       14 UNK        -0.2598 
      8 C8        -55.6723  -26.3409    7.9114 C.3       14 UNK         0.0286 
      9 C9        -54.6703  -26.7079    8.9955 C.ar      14 UNK        -0.0844 
     10 C10       -53.8181  -25.7379    9.5310 C.ar      14 UNK        -0.0881 
     11 C11       -52.9169  -26.0739   10.5438 C.ar      14 UNK        -0.0643 
     12 C12       -52.8795  -27.3813   11.0332 C.ar      14 UNK        -0.0930 
     13 C13       -53.7210  -28.3599   10.5009 C.ar      14 UNK        -0.0827 
     14 C14       -54.6127  -28.0181    9.4801 C.ar      14 UNK        -0.1249 
     15 C15       -53.6927  -29.7773   11.0472 C.3       14 UNK         0.0141 
     16 S16       -52.5011  -30.8358   10.1681 S.3       14 UNK        -0.2313 
     17 C17       -50.9240  -30.5179   11.0348 C.3       14 UNK        -0.0915 
     18 CA        -50.7065  -31.5077   12.2204 C.3       13 UNK         0.0968 
     19 C         -49.2028  -31.8151   12.5034 C.2       13 UNK         0.5732 
     20 N         -48.7494  -31.8631   13.7499 N.am      13 UNK        -0.7310 
     21 O         -48.4467  -32.0921   11.5758 O.2       13 UNK        -0.5035 
     22 N         -51.5303  -31.1627   13.3952 N.am      13 UNK        -0.4233 
     23 C         -51.3917  -30.0873   14.1822 C.2       13 UNK         0.4989 
     24 O         -50.4960  -29.2508   14.0582 O.2       13 UNK        -0.4996 
     25 CA        -52.4461  -29.9386   15.2951 C.3       12 UNK         0.0216 
     26 CB        -51.8355  -29.4732   16.6314 C.3       12 UNK        -0.1964 
     27 N         -53.5591  -29.0654   14.9040 N.am      12 UNK        -0.4276 
     28 C         -53.5120  -27.7660   14.5752 C.2       12 UNK         0.5020 
     29 O         -52.4829  -27.0901   14.5125 O.2       12 UNK        -0.5489 
     30 CA        -54.8667  -27.1016   14.3041 C.3       11 UNK         0.0294 
     31 CB        -55.7085  -27.0091   15.5940 C.3       11 UNK        -0.2019 
     32 N         -54.6394  -25.7642   13.7675 N.am      11 UNK        -0.4493 
     33 C         -55.5384  -25.0298   13.1019 C.2       11 UNK         0.4932 
     34 O         -56.6774  -25.4234   12.8429 O.2       11 UNK        -0.5029 
     35 CA        -55.0957  -23.6204   12.6524 C.3       10 UNK         0.0280 
     36 CB        -56.2882  -22.6843   12.3603 C.3       10 UNK        -0.1976 
     37 N         -54.1436  -22.9780   13.5706 N.am      10 UNK        -0.4242 
     38 C         -54.3432  -22.6719   14.8615 C.2       10 UNK         0.5072 
     39 O         -55.3841  -22.8979   15.4820 O.2       10 UNK        -0.5224 
     40 CA        -53.1583  -22.0168   15.5922 C.3       9 UNK         0.0343 
     41 CB        -53.6112  -20.8207   16.4482 C.3       9 UNK        -0.2003 
     42 N         -52.4737  -22.9886   16.4449 N.am      9 UNK        -0.4272 
     43 C         -51.7326  -24.0068   15.9910 C.2       9 UNK         0.4988 
     44 O         -51.5008  -24.1984   14.7941 O.2       9 UNK        -0.5108 
     45 CA        -51.1506  -24.9478   17.0562 C.3       8 UNK         0.0248 
     46 CB        -52.2515  -25.7321   17.7944 C.3       8 UNK        -0.2001 
     47 N         -50.2294  -25.8863   16.4211 N.am      8 UNK        -0.4140 
     48 C         -49.0615  -26.2987   16.9308 C.2       8 UNK         0.5028 
     49 O         -48.6622  -25.9857   18.0538 O.2       8 UNK        -0.5428 
     50 CA        -48.1675  -27.1935   16.0524 C.3       7 UNK         0.0264 
     51 CB        -48.1013  -28.6329   16.5870 C.3       7 UNK        -0.1988 
     52 N         -48.5956  -27.2165   14.6526 N.am      7 UNK        -0.4454 
     53 C         -48.1675  -26.3492   13.7280 C.2       7 UNK         0.5027 
     54 O         -47.3240  -25.4756   13.9450 O.2       7 UNK        -0.5083 
     55 CA        -48.7961  -26.4594   12.3247 C.3       6 UNK         0.0844 
     56 C56       -49.2936  -25.0642   11.8717 C.3       14 UNK        -0.0967 
     57 S57       -50.3327  -25.1609   10.3814 S.3       14 UNK        -0.2604 
     58 C58       -51.9853  -25.0289   11.1237 C.3       14 UNK         0.0134 
     59 N         -47.8631  -27.0215   11.3421 N.am      6 UNK        -0.4116 
     60 C         -47.1497  -28.1527   11.4433 C.2       5 UNK         0.5034 
     61 O         -47.2294  -28.9399   12.3845 O.2       5 UNK        -0.5045 
     62 CA        -46.1712  -28.4756   10.2962 C.3       5 UNK         0.0224 
     63 CB        -46.7040  -29.6351    9.4382 C.3       5 UNK        -0.1978 
     64 N         -45.8686  -27.3433    9.4152 N.am      5 UNK        -0.4737 
     65 C         -45.1720  -26.2482    9.7496 C.2       4 UNK         0.5027 
     66 O         -44.6945  -26.0718   10.8702 O.2       4 UNK        -0.5211 
     67 CA        -44.9599  -25.1743    8.6593 C.3       4 UNK         0.0297 
     68 CB        -43.4867  -24.7331    8.5929 C.3       4 UNK        -0.1993 
     69 N         -45.3853  -25.5936    7.3177 N.am      4 UNK        -0.4486 
     70 C         -46.6505  -25.6462    6.8841 C.2       3 UNK         0.4961 
     71 O         -47.6250  -25.3504    7.5771 O.2       3 UNK        -0.5105 
     72 CA        -46.8434  -26.2071    5.4676 C.3       3 UNK         0.0299 
     73 CB        -46.7992  -27.7450    5.4938 C.3       3 UNK        -0.1972 
     74 N         -48.1120  -25.7688    4.8836 N.am      3 UNK        -0.4305 
     75 C         -48.2953  -24.5742    4.2999 C.2       2 UNK         0.5006 
     76 O         -47.4020  -23.7329    4.1855 O.2       2 UNK        -0.5106 
     77 CA        -49.6816  -24.2558    3.7063 C.3       2 UNK         0.0296 
     78 CB        -49.6395  -24.3469    2.1711 C.3       2 UNK        -0.2002 
     79 N         -50.7423  -25.1332    4.2025 N.am      2 UNK        -0.4032 
     80 C         -51.3827  -24.9627    5.3660 C.2       1 UNK         0.5000 
     81 O         -51.1994  -24.0053    6.1216 O.2       1 UNK        -0.5238 
     82 H82       -51.1516  -28.1062    8.9984 H         1 UNK         0.0889 
     83 H83       -49.4743  -27.7057    8.6261 H         1 UNK         0.0889 
     84 H84       -50.1585  -29.2498    8.0978 H         1 UNK         0.0889 
     85 H85       -52.4292  -26.6803    7.7781 H         1 UNK         0.3028 
     86 H86       -52.4553  -26.7762    4.9320 H         1 UNK         0.0864 
     87 H87       -53.8071  -24.7540    6.7881 H         1 UNK         0.0720 
     88 H88       -54.1121  -24.9113    5.0819 H         1 UNK         0.0720 
     89 H89       -56.6064  -26.8767    8.0869 H         1 UNK         0.0814 
     90 H90       -55.9229  -25.2799    7.9563 H         1 UNK         0.0814 
     91 H91       -53.8560  -24.7214    9.1641 H         1 UNK         0.1469 
     92 H92       -52.1898  -27.6330   11.8274 H         1 UNK         0.1381 
     93 H93       -55.2704  -28.7709    9.0670 H         1 UNK         0.1206 
     94 H94       -53.4761  -29.7662   12.1131 H         1 UNK         0.0813 
     95 H95       -54.6835  -30.2236   10.9514 H         1 UNK         0.0813 
     96 H96       -50.8639  -29.4798   11.3605 H         1 UNK         0.0638 
     97 H97       -50.1427  -30.6303   10.2818 H         1 UNK         0.0638 
     98 H98       -51.0858  -32.4791   11.9008 H         1 UNK         0.0568 
     99 H99       -47.7777  -32.0742   13.9087 H         1 UNK         0.3450 
    100 H100      -49.3506  -31.6243   14.5201 H         1 UNK         0.3450 
    101 H101      -52.2754  -31.8139   13.5949 H         1 UNK         0.2987 
    102 H102      -52.8816  -30.9230   15.4746 H         1 UNK         0.0766 
    103 H103      -52.5959  -29.3975   17.4086 H         1 UNK         0.0798 
    104 H104      -51.3573  -28.4983   16.5431 H         1 UNK         0.0798 
    105 H105      -51.0857  -30.1819   16.9835 H         1 UNK         0.0798 
    106 H106      -54.4667  -29.5101   14.9064 H         1 UNK         0.3198 
    107 H107      -55.3929  -27.6982   13.5557 H         1 UNK         0.0843 
    108 H108      -56.6885  -26.5732   15.3999 H         1 UNK         0.0831 
    109 H109      -55.2175  -26.3929   16.3481 H         1 UNK         0.0831 
    110 H110      -55.8805  -27.9915   16.0348 H         1 UNK         0.0831 
    111 H111      -53.6960  -25.4203   13.9140 H         1 UNK         0.3133 
    112 H112      -54.5666  -23.7611   11.7111 H         1 UNK         0.0566 
    113 H113      -55.9510  -21.7034   12.0253 H         1 UNK         0.0814 
    114 H114      -56.9228  -23.0924   11.5726 H         1 UNK         0.0814 
    115 H115      -56.9154  -22.5415   13.2408 H         1 UNK         0.0814 
    116 H116      -53.2260  -22.7926   13.1891 H         1 UNK         0.3091 
    117 H117      -52.4471  -21.6443   14.8515 H         1 UNK         0.0702 
    118 H118      -52.7605  -20.3179   16.9087 H         1 UNK         0.0785 
    119 H119      -54.2924  -21.1243   17.2444 H         1 UNK         0.0785 
    120 H120      -54.1325  -20.0817   15.8383 H         1 UNK         0.0785 
    121 H121      -52.6367  -22.9083   17.4380 H         1 UNK         0.2998 
    122 H122      -50.6088  -24.3275   17.7733 H         1 UNK         0.0697 
    123 H123      -52.8369  -26.3437   17.1091 H         1 UNK         0.0825 
    124 H124      -52.9431  -25.0647   18.3091 H         1 UNK         0.0825 
    125 H125      -51.8249  -26.3953   18.5470 H         1 UNK         0.0825 
    126 H126      -50.4978  -26.1626   15.4823 H         1 UNK         0.3029 
    127 H127      -47.1581  -26.7808   16.1145 H         1 UNK         0.0897 
    128 H128      -47.3648  -29.2200   16.0379 H         1 UNK         0.0792 
    129 H129      -47.8130  -28.6509   17.6388 H         1 UNK         0.0792 
    130 H130      -49.0576  -29.1423   16.4990 H         1 UNK         0.0792 
    131 H131      -49.2782  -27.9300   14.3916 H         1 UNK         0.3086 
    132 H132      -49.6537  -27.1331   12.3861 H         1 UNK         0.0583 
    133 H133      -48.4474  -24.4093   11.6537 H         1 UNK         0.1020 
    134 H134      -49.8459  -24.5621   12.6687 H         1 UNK         0.1020 
    135 H135      -51.9451  -25.1623   12.2057 H         1 UNK         0.0694 
    136 H136      -52.3647  -24.0219   10.9485 H         1 UNK         0.0694 
    137 H137      -47.7187  -26.4584   10.5173 H         1 UNK         0.2989 
    138 H138      -45.2356  -28.7947   10.7611 H         1 UNK         0.1055 
    139 H139      -46.8884  -30.5185   10.0505 H         1 UNK         0.0806 
    140 H140      -45.9880  -29.9239    8.6686 H         1 UNK         0.0806 
    141 H141      -47.6427  -29.3795    8.9467 H         1 UNK         0.0806 
    142 H142      -46.2319  -27.3918    8.4751 H         1 UNK         0.3061 
    143 H143      -45.5571  -24.3081    8.9522 H         1 UNK         0.0734 
    144 H144      -43.1497  -24.3392    9.5529 H         1 UNK         0.0832 
    145 H145      -42.8282  -25.5628    8.3330 H         1 UNK         0.0832 
    146 H146      -43.3406  -23.9429    7.8562 H         1 UNK         0.0832 
    147 H147      -44.6495  -25.8882    6.6904 H         1 UNK         0.3156 
    148 H148      -46.0255  -25.8533    4.8359 H         1 UNK         0.0589 
    149 H149      -47.5350  -28.1624    6.1818 H         1 UNK         0.0808 
    150 H150      -46.9902  -28.1650    4.5061 H         1 UNK         0.0808 
    151 H151      -45.8200  -28.1053    5.8116 H         1 UNK         0.0808 
    152 H152      -48.9064  -26.3842    5.0304 H         1 UNK         0.3098 
    153 H153      -49.9209  -23.2246    3.9756 H         1 UNK         0.0720 
    154 H154      -50.5948  -24.0618    1.7300 H         1 UNK         0.0791 
    155 H155      -49.3992  -25.3555    1.8320 H         1 UNK         0.0791 
    156 H156      -48.8830  -23.6767    1.7604 H         1 UNK         0.0791 
    157 H157      -50.9372  -25.9602    3.6555 H         1 UNK         0.3028 
@<TRIPOS>BOND
     1    1    2 1    
     2    1   82 1    
     3    1   83 1    
     4    1   84 1    
     5    2    3 2    
     6    2    4 am   BACKBONE|DICT|INTERRES
     7    4    5 1    
     8    4   85 1    
     9    5    6 1    
    10    5   80 1    
    11    5   86 1    
    12    6    7 1    
    13    6   87 1    
    14    6   88 1    
    15    7    8 1    
    16    8    9 1    
    17    8   89 1    
    18    8   90 1    
    19    9   10 ar   
    20    9   14 ar   
    21   10   11 ar   
    22   10   91 1    
    23   11   12 ar   
    24   11   58 1    
    25   12   13 ar   
    26   12   92 1    
    27   13   14 ar   
    28   13   15 1    
    29   14   93 1    
    30   15   16 1    
    31   15   94 1    
    32   15   95 1    
    33   16   17 1    
    34   17   18 1    
    35   17   96 1    
    36   17   97 1    
    37   18   19 1    
    38   18   22 1    
    39   18   98 1    
    40   19   20 am   BACKBONE|DICT|INTERRES
    41   19   21 2    
    42   20   99 1    
    43   20  100 1    
    44   22   23 am   BACKBONE|DICT|INTERRES
    45   22  101 1    
    46   23   24 2    
    47   23   25 1    
    48   25   26 1    
    49   25   27 1    
    50   25  102 1    
    51   26  103 1    
    52   26  104 1    
    53   26  105 1    
    54   27   28 am   BACKBONE|DICT|INTERRES
    55   27  106 1    
    56   28   29 2    
    57   28   30 1    
    58   30   31 1    
    59   30   32 1    
    60   30  107 1    
    61   31  108 1    
    62   31  109 1    
    63   31  110 1    
    64   32   33 am   BACKBONE|DICT|INTERRES
    65   32  111 1    
    66   33   34 2    
    67   33   35 1    
    68   35   36 1    
    69   35   37 1    
    70   35  112 1    
    71   36  113 1    
    72   36  114 1    
    73   36  115 1    
    74   37   38 am   BACKBONE|DICT|INTERRES
    75   37  116 1    
    76   38   39 2    
    77   38   40 1    
    78   40   41 1    
    79   40   42 1    
    80   40  117 1    
    81   41  118 1    
    82   41  119 1    
    83   41  120 1    
    84   42   43 am   BACKBONE|DICT|INTERRES
    85   42  121 1    
    86   43   44 2    
    87   43   45 1    
    88   45   46 1    
    89   45   47 1    
    90   45  122 1    
    91   46  123 1    
    92   46  124 1    
    93   46  125 1    
    94   47   48 am   BACKBONE|DICT|INTERRES
    95   47  126 1    
    96   48   49 2    
    97   48   50 1    
    98   50   51 1    
    99   50   52 1    
   100   50  127 1    
   101   51  128 1    
   102   51  129 1    
   103   51  130 1    
   104   52   53 am   BACKBONE|DICT|INTERRES
   105   52  131 1    
   106   53   54 2    
   107   53   55 1    
   108   55   56 1    
   109   55   59 1    
   110   55  132 1    
   111   56   57 1    
   112   56  133 1    
   113   56  134 1    
   114   57   58 1    
   115   58  135 1    
   116   58  136 1    
   117   59   60 am   BACKBONE|DICT|INTERRES
   118   59  137 1    
   119   60   61 2    
   120   60   62 1    
   121   62   63 1    
   122   62   64 1    
   123   62  138 1    
   124   63  139 1    
   125   63  140 1    
   126   63  141 1    
   127   64   65 am   BACKBONE|DICT|INTERRES
   128   64  142 1    
   129   65   66 2    
   130   65   67 1    
   131   67   68 1    
   132   67   69 1    
   133   67  143 1    
   134   68  144 1    
   135   68  145 1    
   136   68  146 1    
   137   69   70 am   BACKBONE|DICT|INTERRES
   138   69  147 1    
   139   70   71 2    
   140   70   72 1    
   141   72   73 1    
   142   72   74 1    
   143   72  148 1    
   144   73  149 1    
   145   73  150 1    
   146   73  151 1    
   147   74   75 am   BACKBONE|DICT|INTERRES
   148   74  152 1    
   149   75   76 2    
   150   75   77 1    
   151   77   78 1    
   152   77   79 1    
   153   77  153 1    
   154   78  154 1    
   155   78  155 1    
   156   78  156 1    
   157   79   80 am   BACKBONE|DICT|INTERRES
   158   79  157 1    
   159   80   81 2    
@<TRIPOS>SUBSTRUCTURE
     1 UNK         1 GROUP             0       ****    0 ROOT    
