@<TRIPOS>MOLECULE
3R207
157   159    1
SMALL
USER_CHARGES


@<TRIPOS>ATOM
      1 CA        -44.7142  -30.4226    5.0112 C.3       0 UNK        -0.1975 
      2 C         -46.0471  -29.6894    4.9827 C.2       0 UNK         0.4852 
      3 O         -46.2832  -28.8886    4.0764 O.2       0 UNK        -0.5216 
      4 N         -46.9159  -29.9576    5.9690 N.am      1 UNK        -0.4461 
      5 CA        -48.2465  -29.3617    6.1410 C.3       1 UNK         0.0864 
      6 C6        -48.9451  -29.9374    7.3990 C.3       14 UNK        -0.0898 
      7 S7        -50.6799  -29.3989    7.5850 S.3       14 UNK        -0.2598 
      8 C8        -50.5067  -28.2340    8.9726 C.3       14 UNK         0.0286 
      9 C9        -51.8102  -27.5075    9.2551 C.ar      14 UNK        -0.0844 
     10 C10       -52.0457  -26.2428    8.7079 C.ar      14 UNK        -0.0881 
     11 C11       -53.2201  -25.5488    9.0145 C.ar      14 UNK        -0.0643 
     12 C12       -54.1755  -26.1439    9.8422 C.ar      14 UNK        -0.0930 
     13 C13       -53.9585  -27.4131   10.3841 C.ar      14 UNK        -0.0827 
     14 C14       -52.7680  -28.0866   10.0919 C.ar      14 UNK        -0.1249 
     15 C15       -54.9922  -28.0099   11.3286 C.3       14 UNK         0.0141 
     16 S16       -55.5944  -29.6520   10.8149 S.3       14 UNK        -0.2313 
     17 C17       -54.6108  -30.7412   11.8997 C.3       14 UNK        -0.0915 
     18 CA        -55.3099  -31.0713   13.2490 C.3       13 UNK         0.0968 
     19 C         -54.4656  -32.0669   14.0943 C.2       13 UNK         0.5732 
     20 N         -54.0969  -31.7511   15.3312 N.am      13 UNK        -0.7310 
     21 O         -54.1516  -33.1582   13.6249 O.2       13 UNK        -0.5035 
     22 N         -55.6799  -29.8550   13.9960 N.am      13 UNK        -0.4233 
     23 C         -56.9297  -29.5272   14.3502 C.2       13 UNK         0.4989 
     24 O         -57.9205  -30.2163   14.1038 O.2       13 UNK        -0.4996 
     25 CA        -57.1261  -28.2047   15.1038 C.3       12 UNK         0.0216 
     26 CB        -57.0781  -28.4506   16.6211 C.3       12 UNK        -0.1964 
     27 N         -56.1076  -27.2134   14.7562 N.am      12 UNK        -0.4276 
     28 C         -56.3190  -26.0763   14.0771 C.2       12 UNK         0.5020 
     29 O         -57.4025  -25.7755   13.5737 O.2       12 UNK        -0.5489 
     30 CA        -55.1171  -25.1114   13.9294 C.3       11 UNK         0.0294 
     31 CB        -55.5411  -23.6296   13.8786 C.3       11 UNK        -0.2019 
     32 N         -54.0713  -25.3196   14.9396 N.am      11 UNK        -0.4493 
     33 C         -54.2107  -25.2926   16.2754 C.2       11 UNK         0.4932 
     34 O         -55.2147  -24.8662   16.8469 O.2       11 UNK        -0.5029 
     35 CA        -53.0695  -25.9006   17.1176 C.3       10 UNK         0.0280 
     36 CB        -53.6112  -26.6687   18.3413 C.3       10 UNK        -0.1976 
     37 N         -52.1324  -26.7540   16.3717 N.am      10 UNK        -0.4242 
     38 C         -52.3914  -27.8577   15.6464 C.2       10 UNK         0.5072 
     39 O         -53.5271  -28.3098   15.4606 O.2       10 UNK        -0.5224 
     40 CA        -51.1827  -28.5400   14.9766 C.3       9 UNK         0.0343 
     41 CB        -51.5560  -29.1839   13.6337 C.3       9 UNK        -0.2003 
     42 N         -50.1022  -27.5793   14.7517 N.am      9 UNK        -0.4272 
     43 C         -48.8853  -27.6328   15.3112 C.2       9 UNK         0.4988 
     44 O         -48.4860  -28.5696   16.0034 O.2       9 UNK        -0.5108 
     45 CA        -47.9621  -26.4176   15.0946 C.3       8 UNK         0.0248 
     46 CB        -46.9618  -26.7016   13.9624 C.3       8 UNK        -0.2001 
     47 N         -48.6900  -25.1720   14.8161 N.am      8 UNK        -0.4140 
     48 C         -49.5270  -24.5768   15.6833 C.2       8 UNK         0.5028 
     49 O         -49.7240  -24.9959   16.8240 O.2       8 UNK        -0.5428 
     50 CA        -50.3351  -23.3553   15.2050 C.3       7 UNK         0.0264 
     51 CB        -49.6883  -22.0565   15.7112 C.3       7 UNK        -0.1988 
     52 N         -50.5072  -23.2691   13.7539 N.am      7 UNK        -0.4454 
     53 C         -51.1004  -24.1830   12.9706 C.2       7 UNK         0.5027 
     54 O         -51.6290  -25.2112   13.4011 O.2       7 UNK        -0.5083 
     55 CA        -51.0235  -23.9314   11.4483 C.3       6 UNK         0.0844 
     56 C56       -52.3025  -23.2175   10.9389 C.3       14 UNK        -0.0967 
     57 S57       -52.2534  -22.9345    9.1302 S.3       14 UNK        -0.2604 
     58 C58       -53.4534  -24.1434    8.4790 C.3       14 UNK         0.0134 
     59 N         -49.8038  -23.2129   11.0433 N.am      6 UNK        -0.4116 
     60 C         -48.5452  -23.6144   11.2638 C.2       5 UNK         0.5034 
     61 O         -48.2465  -24.6177   11.9139 O.2       5 UNK        -0.5045 
     62 CA        -47.4272  -22.7063   10.7275 C.3       5 UNK         0.0224 
     63 CB        -46.8806  -21.8138   11.8541 C.3       5 UNK        -0.1978 
     64 N         -46.3314  -23.4968   10.1631 N.am      5 UNK        -0.4737 
     65 C         -46.4283  -24.1985    9.0278 C.2       4 UNK         0.5027 
     66 O         -47.4261  -24.1804    8.3030 O.2       4 UNK        -0.5211 
     67 CA        -45.2174  -25.0724    8.6648 C.3       4 UNK         0.0297 
     68 CB        -45.2073  -26.3523    9.5189 C.3       4 UNK        -0.1993 
     69 N         -45.2920  -25.4504    7.2553 N.am      4 UNK        -0.4486 
     70 C         -44.6022  -24.8763    6.2598 C.2       3 UNK         0.4961 
     71 O         -43.7110  -24.0447    6.4366 O.2       3 UNK        -0.5105 
     72 CA        -44.9622  -25.2862    4.8156 C.3       3 UNK         0.0299 
     73 CB        -43.9869  -26.3583    4.3057 C.3       3 UNK        -0.1972 
     74 N         -46.3371  -25.7774    4.6850 N.am      3 UNK        -0.4305 
     75 C         -47.4285  -25.0124    4.8471 C.2       2 UNK         0.5006 
     76 O         -47.3856  -23.7827    4.9081 O.2       2 UNK        -0.5106 
     77 CA        -48.7980  -25.7120    4.9823 C.3       2 UNK         0.0296 
     78 CB        -49.6943  -25.3916    3.7740 C.3       2 UNK        -0.2002 
     79 N         -48.7525  -27.1677    5.1645 N.am      2 UNK        -0.4032 
     80 C         -48.1652  -27.8211    6.1776 C.2       1 UNK         0.5000 
     81 O         -47.5439  -27.2709    7.0880 O.2       1 UNK        -0.5238 
     82 H82       -44.5719  -30.9752    4.0829 H         1 UNK         0.0889 
     83 H83       -44.6549  -31.1298    5.8383 H         1 UNK         0.0889 
     84 H84       -43.8946  -29.7125    5.1133 H         1 UNK         0.0889 
     85 H85       -46.6416  -30.6093    6.6900 H         1 UNK         0.3028 
     86 H86       -48.8346  -29.6568    5.2693 H         1 UNK         0.0864 
     87 H87       -48.9545  -31.0272    7.3447 H         1 UNK         0.0720 
     88 H88       -48.3800  -29.6914    8.3005 H         1 UNK         0.0720 
     89 H89       -49.7192  -27.5109    8.7546 H         1 UNK         0.0814 
     90 H90       -50.1845  -28.7765    9.8630 H         1 UNK         0.0814 
     91 H91       -51.3028  -25.7823    8.0705 H         1 UNK         0.1469 
     92 H92       -55.0833  -25.6066   10.0807 H         1 UNK         0.1381 
     93 H93       -52.5795  -29.0624   10.5143 H         1 UNK         0.1206 
     94 H94       -55.8621  -27.3560   11.4013 H         1 UNK         0.0813 
     95 H95       -54.5607  -28.0520   12.3279 H         1 UNK         0.0813 
     96 H96       -53.6352  -30.2918   12.0673 H         1 UNK         0.0638 
     97 H97       -54.4215  -31.6594   11.3410 H         1 UNK         0.0638 
     98 H98       -56.2148  -31.6283   13.0010 H         1 UNK         0.0568 
     99 H99       -54.3435  -30.8621   15.7355 H         1 UNK         0.3450 
    100 H100      -53.5592  -32.4149   15.8651 H         1 UNK         0.3450 
    101 H101      -54.9106  -29.2709   14.3015 H         1 UNK         0.2987 
    102 H102      -58.1196  -27.8280   14.8518 H         1 UNK         0.0766 
    103 H103      -57.8453  -29.1634   16.9267 H         1 UNK         0.0798 
    104 H104      -57.2524  -27.5282   17.1759 H         1 UNK         0.0798 
    105 H105      -56.1140  -28.8517   16.9362 H         1 UNK         0.0798 
    106 H106      -55.1710  -27.3923   15.1099 H         1 UNK         0.3198 
    107 H107      -54.6561  -25.3531   12.9705 H         1 UNK         0.0843 
    108 H108      -56.0680  -23.3291   14.7846 H         1 UNK         0.0831 
    109 H109      -56.2090  -23.4416   13.0371 H         1 UNK         0.0831 
    110 H110      -54.6782  -22.9747   13.7582 H         1 UNK         0.0831 
    111 H111      -53.1725  -25.6092   14.5635 H         1 UNK         0.3133 
    112 H112      -52.4850  -25.0568   17.4863 H         1 UNK         0.0566 
    113 H113      -52.7997  -27.0701   18.9482 H         1 UNK         0.0814 
    114 H114      -54.2504  -27.5006   18.0445 H         1 UNK         0.0814 
    115 H115      -54.2023  -26.0186   18.9875 H         1 UNK         0.0814 
    116 H116      -51.1636  -26.4611   16.4450 H         1 UNK         0.3091 
    117 H117      -50.8574  -29.3313   15.6546 H         1 UNK         0.0702 
    118 H118      -50.6797  -29.5870   13.1261 H         1 UNK         0.0785 
    119 H119      -52.0350  -28.4691   12.9636 H         1 UNK         0.0785 
    120 H120      -52.2416  -30.0137   13.7949 H         1 UNK         0.0785 
    121 H121      -50.3486  -26.7651   14.1990 H         1 UNK         0.2998 
    122 H122      -47.3973  -26.2676   16.0171 H         1 UNK         0.0697 
    123 H123      -47.4684  -26.9110   13.0194 H         1 UNK         0.0825 
    124 H124      -46.3440  -27.5693   14.1974 H         1 UNK         0.0825 
    125 H125      -46.2897  -25.8585   13.8018 H         1 UNK         0.0825 
    126 H126      -48.5936  -24.7982   13.8763 H         1 UNK         0.3029 
    127 H127      -51.3311  -23.4371   15.6455 H         1 UNK         0.0897 
    128 H128      -48.6982  -21.9032   15.2797 H         1 UNK         0.0792 
    129 H129      -49.5713  -22.0755   16.7959 H         1 UNK         0.0792 
    130 H130      -50.2999  -21.1867   15.4702 H         1 UNK         0.0792 
    131 H131      -50.0986  -22.4631   13.3041 H         1 UNK         0.3086 
    132 H132      -50.9748  -24.9161   10.9802 H         1 UNK         0.0583 
    133 H133      -53.1953  -23.7888   11.1991 H         1 UNK         0.1020 
    134 H134      -52.4195  -22.2477   11.4265 H         1 UNK         0.1020 
    135 H135      -54.4607  -23.7984    8.7180 H         1 UNK         0.0694 
    136 H136      -53.3853  -24.1585    7.3904 H         1 UNK         0.0694 
    137 H137      -49.9591  -22.3834   10.4886 H         1 UNK         0.2989 
    138 H138      -47.8315  -22.0683    9.9380 H         1 UNK         0.1055 
    139 H139      -46.0988  -21.1474   11.4890 H         1 UNK         0.0806 
    140 H140      -46.4641  -22.4037   12.6720 H         1 UNK         0.0806 
    141 H141      -47.6677  -21.1858   12.2739 H         1 UNK         0.0806 
    142 H142      -45.5002  -23.5912   10.7289 H         1 UNK         0.3061 
    143 H143      -44.3038  -24.5075    8.8618 H         1 UNK         0.0734 
    144 H144      -46.1251  -26.9284    9.3926 H         1 UNK         0.0832 
    145 H145      -44.3688  -26.9975    9.2565 H         1 UNK         0.0832 
    146 H146      -45.1166  -26.1179   10.5803 H         1 UNK         0.0832 
    147 H147      -46.0710  -26.0646    7.0254 H         1 UNK         0.3156 
    148 H148      -44.8578  -24.4024    4.1828 H         1 UNK         0.0589 
    149 H149      -44.0150  -27.2534    4.9269 H         1 UNK         0.0808 
    150 H150      -42.9611  -25.9876    4.3162 H         1 UNK         0.0808 
    151 H151      -44.2157  -26.6525    3.2811 H         1 UNK         0.0808 
    152 H152      -46.4551  -26.7802    4.5908 H         1 UNK         0.3098 
    153 H153      -49.2685  -25.2945    5.8752 H         1 UNK         0.0720 
    154 H154      -49.7912  -24.3142    3.6319 H         1 UNK         0.0791 
    155 H155      -50.7010  -25.7878    3.9088 H         1 UNK         0.0791 
    156 H156      -49.2882  -25.8065    2.8506 H         1 UNK         0.0791 
    157 H157      -49.2027  -27.7145    4.4446 H         1 UNK         0.3028 
@<TRIPOS>BOND
     1    1    2 1    
     2    1   82 1    
     3    1   83 1    
     4    1   84 1    
     5    2    3 2    
     6    2    4 am   BACKBONE|DICT|INTERRES
     7    4    5 1    
     8    4   85 1    
     9    5    6 1    
    10    5   80 1    
    11    5   86 1    
    12    6    7 1    
    13    6   87 1    
    14    6   88 1    
    15    7    8 1    
    16    8    9 1    
    17    8   89 1    
    18    8   90 1    
    19    9   10 ar   
    20    9   14 ar   
    21   10   11 ar   
    22   10   91 1    
    23   11   12 ar   
    24   11   58 1    
    25   12   13 ar   
    26   12   92 1    
    27   13   14 ar   
    28   13   15 1    
    29   14   93 1    
    30   15   16 1    
    31   15   94 1    
    32   15   95 1    
    33   16   17 1    
    34   17   18 1    
    35   17   96 1    
    36   17   97 1    
    37   18   19 1    
    38   18   22 1    
    39   18   98 1    
    40   19   20 am   BACKBONE|DICT|INTERRES
    41   19   21 2    
    42   20   99 1    
    43   20  100 1    
    44   22   23 am   BACKBONE|DICT|INTERRES
    45   22  101 1    
    46   23   24 2    
    47   23   25 1    
    48   25   26 1    
    49   25   27 1    
    50   25  102 1    
    51   26  103 1    
    52   26  104 1    
    53   26  105 1    
    54   27   28 am   BACKBONE|DICT|INTERRES
    55   27  106 1    
    56   28   29 2    
    57   28   30 1    
    58   30   31 1    
    59   30   32 1    
    60   30  107 1    
    61   31  108 1    
    62   31  109 1    
    63   31  110 1    
    64   32   33 am   BACKBONE|DICT|INTERRES
    65   32  111 1    
    66   33   34 2    
    67   33   35 1    
    68   35   36 1    
    69   35   37 1    
    70   35  112 1    
    71   36  113 1    
    72   36  114 1    
    73   36  115 1    
    74   37   38 am   BACKBONE|DICT|INTERRES
    75   37  116 1    
    76   38   39 2    
    77   38   40 1    
    78   40   41 1    
    79   40   42 1    
    80   40  117 1    
    81   41  118 1    
    82   41  119 1    
    83   41  120 1    
    84   42   43 am   BACKBONE|DICT|INTERRES
    85   42  121 1    
    86   43   44 2    
    87   43   45 1    
    88   45   46 1    
    89   45   47 1    
    90   45  122 1    
    91   46  123 1    
    92   46  124 1    
    93   46  125 1    
    94   47   48 am   BACKBONE|DICT|INTERRES
    95   47  126 1    
    96   48   49 2    
    97   48   50 1    
    98   50   51 1    
    99   50   52 1    
   100   50  127 1    
   101   51  128 1    
   102   51  129 1    
   103   51  130 1    
   104   52   53 am   BACKBONE|DICT|INTERRES
   105   52  131 1    
   106   53   54 2    
   107   53   55 1    
   108   55   56 1    
   109   55   59 1    
   110   55  132 1    
   111   56   57 1    
   112   56  133 1    
   113   56  134 1    
   114   57   58 1    
   115   58  135 1    
   116   58  136 1    
   117   59   60 am   BACKBONE|DICT|INTERRES
   118   59  137 1    
   119   60   61 2    
   120   60   62 1    
   121   62   63 1    
   122   62   64 1    
   123   62  138 1    
   124   63  139 1    
   125   63  140 1    
   126   63  141 1    
   127   64   65 am   BACKBONE|DICT|INTERRES
   128   64  142 1    
   129   65   66 2    
   130   65   67 1    
   131   67   68 1    
   132   67   69 1    
   133   67  143 1    
   134   68  144 1    
   135   68  145 1    
   136   68  146 1    
   137   69   70 am   BACKBONE|DICT|INTERRES
   138   69  147 1    
   139   70   71 2    
   140   70   72 1    
   141   72   73 1    
   142   72   74 1    
   143   72  148 1    
   144   73  149 1    
   145   73  150 1    
   146   73  151 1    
   147   74   75 am   BACKBONE|DICT|INTERRES
   148   74  152 1    
   149   75   76 2    
   150   75   77 1    
   151   77   78 1    
   152   77   79 1    
   153   77  153 1    
   154   78  154 1    
   155   78  155 1    
   156   78  156 1    
   157   79   80 am   BACKBONE|DICT|INTERRES
   158   79  157 1    
   159   80   81 2    
@<TRIPOS>SUBSTRUCTURE
     1 UNK         1 GROUP             0       ****    0 ROOT    
