@<TRIPOS>MOLECULE
3R207
157   159    1
SMALL
USER_CHARGES


@<TRIPOS>ATOM
      1 CA        -45.2123  -30.2246    1.8036 C.3       0 UNK        -0.1975 
      2 C         -46.0556  -29.7771    2.9880 C.2       0 UNK         0.4852 
      3 O         -45.5543  -29.7366    4.1129 O.2       0 UNK        -0.5216 
      4 N         -47.3284  -29.4319    2.7424 N.am      1 UNK        -0.4461 
      5 CA        -48.3353  -28.9684    3.7093 C.3       1 UNK         0.0864 
      6 C6        -48.5866  -29.9812    4.8594 C.3       14 UNK        -0.0898 
      7 S7        -50.2346  -29.8034    5.6150 S.3       14 UNK        -0.2598 
      8 C8        -49.7660  -29.0606    7.2035 C.3       14 UNK         0.0286 
      9 C9        -50.9845  -28.6786    8.0233 C.ar      14 UNK        -0.0844 
     10 C10       -51.6114  -27.4510    7.8051 C.ar      14 UNK        -0.0881 
     11 C11       -52.7139  -27.0708    8.5746 C.ar      14 UNK        -0.0643 
     12 C12       -53.1926  -27.9349    9.5649 C.ar      14 UNK        -0.0930 
     13 C13       -52.5838  -29.1781    9.7822 C.ar      14 UNK        -0.0827 
     14 C14       -51.4751  -29.5383    9.0090 C.ar      14 UNK        -0.1249 
     15 C15       -53.0887  -30.1366   10.8574 C.3       14 UNK         0.0141 
     16 S16       -54.8891  -30.4191   10.7844 S.3       14 UNK        -0.2313 
     17 C17       -55.4895  -29.2472   12.0483 C.3       14 UNK        -0.0915 
     18 CA        -56.0395  -29.9491   13.3203 C.3       13 UNK         0.0968 
     19 C         -54.9031  -30.4694   14.2563 C.2       13 UNK         0.5732 
     20 N         -54.6859  -29.8936   15.4339 N.am      13 UNK        -0.7310 
     21 O         -54.2149  -31.4283   13.9172 O.2       13 UNK        -0.5035 
     22 N         -57.0260  -29.0906   13.9899 N.am      13 UNK        -0.4233 
     23 C         -57.8938  -29.5046   14.9217 C.2       13 UNK         0.4989 
     24 O         -58.0666  -30.6905   15.2098 O.2       13 UNK        -0.4996 
     25 CA        -58.7019  -28.4127   15.6575 C.3       12 UNK         0.0216 
     26 CB        -59.0766  -28.8390   17.0934 C.3       12 UNK        -0.1964 
     27 N         -58.0725  -27.0803   15.6774 N.am      12 UNK        -0.4276 
     28 C         -56.8586  -26.7590   16.1506 C.2       12 UNK         0.5020 
     29 O         -56.0377  -27.5788   16.5686 O.2       12 UNK        -0.5489 
     30 CA        -56.5164  -25.2661   16.1623 C.3       11 UNK         0.0294 
     31 CB        -57.1592  -24.5715   17.3786 C.3       11 UNK        -0.2019 
     32 N         -55.0657  -25.0910   16.1976 N.am      11 UNK        -0.4493 
     33 C         -54.4154  -23.9862   15.8183 C.2       11 UNK         0.4932 
     34 O         -54.9826  -22.9888   15.3702 O.2       11 UNK        -0.5029 
     35 CA        -52.8836  -23.9611   15.9582 C.3       10 UNK         0.0280 
     36 CB        -52.4585  -23.6397   17.4041 C.3       10 UNK        -0.1976 
     37 N         -52.1892  -25.1444   15.4390 N.am      10 UNK        -0.4242 
     38 C         -52.1756  -26.3989   15.9094 C.2       10 UNK         0.5072 
     39 O         -52.8427  -26.7860   16.8689 O.2       10 UNK        -0.5224 
     40 CA        -51.2320  -27.3837   15.1962 C.3       9 UNK         0.0343 
     41 CB        -51.8590  -27.8975   13.8904 C.3       9 UNK        -0.2003 
     42 N         -49.9167  -26.8011   14.9125 N.am      9 UNK        -0.4272 
     43 C         -49.0252  -26.4327   15.8457 C.2       9 UNK         0.4988 
     44 O         -49.1767  -26.6228   17.0531 O.2       9 UNK        -0.5108 
     45 CA        -47.7503  -25.7223   15.3559 C.3       8 UNK         0.0248 
     46 CB        -46.7094  -26.7423   14.8677 C.3       8 UNK        -0.2001 
     47 N         -48.0172  -24.7374   14.3042 N.am      8 UNK        -0.4140 
     48 C         -48.7131  -23.6045   14.4858 C.2       8 UNK         0.5028 
     49 O         -49.1282  -23.2217   15.5798 O.2       8 UNK        -0.5428 
     50 CA        -49.0277  -22.7661   13.2343 C.3       7 UNK         0.0264 
     51 CB        -47.8615  -21.8237   12.8975 C.3       7 UNK        -0.1988 
     52 N         -49.3568  -23.5811   12.0622 N.am      7 UNK        -0.4454 
     53 C         -50.4088  -24.4087   11.9764 C.2       7 UNK         0.5027 
     54 O         -51.2420  -24.5444   12.8717 O.2       7 UNK        -0.5083 
     55 CA        -50.5165  -25.2665   10.6990 C.3       6 UNK         0.0844 
     56 C56       -51.1355  -24.4679    9.5229 C.3       14 UNK        -0.0967 
     57 S57       -52.9597  -24.4909    9.5984 S.3       14 UNK        -0.2604 
     58 C58       -53.3847  -25.7262    8.3281 C.3       14 UNK         0.0134 
     59 N         -49.2298  -25.8775   10.3541 N.am      6 UNK        -0.4116 
     60 C         -48.5937  -26.7788   11.1178 C.2       5 UNK         0.5034 
     61 O         -49.0611  -27.2546   12.1518 O.2       5 UNK        -0.5045 
     62 CA        -47.1644  -27.1610   10.7018 C.3       5 UNK         0.0224 
     63 CB        -47.1605  -28.3493    9.7302 C.3       5 UNK        -0.1978 
     64 N         -46.4445  -26.0292   10.1136 N.am      5 UNK        -0.4737 
     65 C         -46.0072  -24.9802   10.8257 C.2       4 UNK         0.5027 
     66 O         -46.1134  -24.8986   12.0487 O.2       4 UNK        -0.5211 
     67 CA        -45.3984  -23.8049   10.0409 C.3       4 UNK         0.0297 
     68 CB        -43.9017  -24.0443    9.7892 C.3       4 UNK        -0.1993 
     69 N         -46.0767  -23.5550    8.7662 N.am      4 UNK        -0.4486 
     70 C         -47.3651  -23.2048    8.6404 C.2       3 UNK         0.4961 
     71 O         -48.1079  -22.9883    9.5964 O.2       3 UNK        -0.5105 
     72 CA        -47.9420  -23.1296    7.2155 C.3       3 UNK         0.0299 
     73 CB        -47.9281  -21.6791    6.7092 C.3       3 UNK        -0.1972 
     74 N         -47.2535  -23.9933    6.2494 N.am      3 UNK        -0.4305 
     75 C         -47.2009  -25.3311    6.3155 C.2       2 UNK         0.5006 
     76 O         -47.7138  -25.9941    7.2197 O.2       2 UNK        -0.5106 
     77 CA        -46.3489  -26.0228    5.2388 C.3       2 UNK         0.0296 
     78 CB        -44.9155  -26.2259    5.7573 C.3       2 UNK        -0.2002 
     79 N         -46.8788  -27.3170    4.8063 N.am      2 UNK        -0.4032 
     80 C         -48.0566  -27.5302    4.2049 C.2       1 UNK         0.5000 
     81 O         -48.8804  -26.6419    3.9776 O.2       1 UNK        -0.5238 
     82 H82       -45.7777  -30.2144    0.8719 H         1 UNK         0.0889 
     83 H83       -44.8460  -31.2378    1.9668 H         1 UNK         0.0889 
     84 H84       -44.3522  -29.5660    1.6861 H         1 UNK         0.0889 
     85 H85       -47.6557  -29.4651    1.7862 H         1 UNK         0.3028 
     86 H86       -49.2557  -28.9118    3.1250 H         1 UNK         0.0864 
     87 H87       -48.5376  -30.9982    4.4670 H         1 UNK         0.0720 
     88 H88       -47.8070  -29.9258    5.6213 H         1 UNK         0.0720 
     89 H89       -49.1605  -28.1737    7.0171 H         1 UNK         0.0814 
     90 H90       -49.1380  -29.7589    7.7588 H         1 UNK         0.0814 
     91 H91       -51.2325  -26.7897    7.0375 H         1 UNK         0.1469 
     92 H92       -54.0425  -27.6358   10.1611 H         1 UNK         0.1381 
     93 H93       -50.9884  -30.4899    9.1744 H         1 UNK         0.1206 
     94 H94       -52.6037  -31.1081   10.7511 H         1 UNK         0.0813 
     95 H95       -52.7987  -29.7681   11.8407 H         1 UNK         0.0813 
     96 H96       -54.7193  -28.5180   12.3049 H         1 UNK         0.0638 
     97 H97       -56.2842  -28.6748   11.5671 H         1 UNK         0.0638 
     98 H98       -56.5860  -30.8367   12.9954 H         1 UNK         0.0568 
     99 H99       -53.9567  -30.2562   16.0253 H         1 UNK         0.3450 
    100 H100      -55.2387  -29.1019   15.7529 H         1 UNK         0.3450 
    101 H101      -56.9439  -28.0999   13.8219 H         1 UNK         0.2987 
    102 H102      -59.6297  -28.3026   15.0943 H         1 UNK         0.0766 
    103 H103      -59.6720  -28.0743   17.5922 H         1 UNK         0.0798 
    104 H104      -58.1904  -29.0232   17.7019 H         1 UNK         0.0798 
    105 H105      -59.6680  -29.7555   17.0930 H         1 UNK         0.0798 
    106 H106      -58.6570  -26.3281   15.3366 H         1 UNK         0.3198 
    107 H107      -56.9028  -24.8221   15.2422 H         1 UNK         0.0843 
    108 H108      -56.7782  -24.9762   18.3172 H         1 UNK         0.0831 
    109 H109      -58.2420  -24.7018   17.3828 H         1 UNK         0.0831 
    110 H110      -56.9663  -23.4987   17.3750 H         1 UNK         0.0831 
    111 H111      -54.5320  -25.8943   16.5299 H         1 UNK         0.3133 
    112 H112      -52.5303  -23.1393   15.3330 H         1 UNK         0.0566 
    113 H113      -51.3754  -23.5427   17.4834 H         1 UNK         0.0814 
    114 H114      -52.8946  -22.6968   17.7365 H         1 UNK         0.0814 
    115 H115      -52.7790  -24.4095   18.1066 H         1 UNK         0.0814 
    116 H116      -51.6717  -24.9724   14.5772 H         1 UNK         0.3091 
    117 H117      -51.0833  -28.2382   15.8595 H         1 UNK         0.0702 
    118 H118      -52.8435  -28.3245   14.0740 H         1 UNK         0.0785 
    119 H119      -51.2435  -28.6756   13.4386 H         1 UNK         0.0785 
    120 H120      -51.9834  -27.1033   13.1545 H         1 UNK         0.0785 
    121 H121      -49.6761  -26.6802   13.9331 H         1 UNK         0.2998 
    122 H122      -47.3223  -25.1873   16.2063 H         1 UNK         0.0697 
    123 H123      -47.0775  -27.3244   14.0233 H         1 UNK         0.0825 
    124 H124      -46.4538  -27.4464   15.6606 H         1 UNK         0.0825 
    125 H125      -45.7860  -26.2515   14.5594 H         1 UNK         0.0825 
    126 H126      -47.6279  -24.9270   13.3858 H         1 UNK         0.3029 
    127 H127      -49.9038  -22.1551   13.4623 H         1 UNK         0.0897 
    128 H128      -48.0984  -21.1879   12.0441 H         1 UNK         0.0792 
    129 H129      -46.9514  -22.3749   12.6611 H         1 UNK         0.0792 
    130 H130      -47.6358  -21.1677   13.7393 H         1 UNK         0.0792 
    131 H131      -48.7564  -23.4759   11.2460 H         1 UNK         0.3086 
    132 H132      -51.1801  -26.1026   10.9311 H         1 UNK         0.0583 
    133 H133      -50.7939  -23.4309    9.5108 H         1 UNK         0.1020 
    134 H134      -50.8176  -24.8803    8.5653 H         1 UNK         0.1020 
    135 H135      -54.4674  -25.8589    8.3137 H         1 UNK         0.0694 
    136 H136      -53.1138  -25.3345    7.3463 H         1 UNK         0.0694 
    137 H137      -48.7632  -25.5361    9.5260 H         1 UNK         0.2989 
    138 H138      -46.6359  -27.4701   11.6063 H         1 UNK         0.1055 
    139 H139      -47.7340  -29.1864   10.1313 H         1 UNK         0.0806 
    140 H140      -46.1471  -28.7071    9.5481 H         1 UNK         0.0806 
    141 H141      -47.5958  -28.0835    8.7696 H         1 UNK         0.0806 
    142 H142      -46.3779  -26.0033    9.1042 H         1 UNK         0.3061 
    143 H143      -45.5037  -22.9080   10.6548 H         1 UNK         0.0734 
    144 H144      -43.4362  -23.1829    9.3099 H         1 UNK         0.0832 
    145 H145      -43.3723  -24.2149   10.7278 H         1 UNK         0.0832 
    146 H146      -43.7304  -24.9160    9.1562 H         1 UNK         0.0832 
    147 H147      -45.5384  -23.6982    7.9249 H         1 UNK         0.3156 
    148 H148      -48.9810  -23.4608    7.2693 H         1 UNK         0.0589 
    149 H149      -46.9123  -21.2947    6.6078 H         1 UNK         0.0808 
    150 H150      -48.4203  -21.5912    5.7404 H         1 UNK         0.0808 
    151 H151      -48.4579  -21.0205    7.3993 H         1 UNK         0.0808 
    152 H152      -46.7903  -23.5280    5.4814 H         1 UNK         0.3098 
    153 H153      -46.3128  -25.3795    4.3572 H         1 UNK         0.0720 
    154 H154      -44.2760  -26.6676    4.9925 H         1 UNK         0.0791 
    155 H155      -44.8930  -26.8806    6.6299 H         1 UNK         0.0791 
    156 H156      -44.4608  -25.2778    6.0474 H         1 UNK         0.0791 
    157 H157      -46.2610  -28.1193    4.8919 H         1 UNK         0.3028 
@<TRIPOS>BOND
     1    1    2 1    
     2    1   82 1    
     3    1   83 1    
     4    1   84 1    
     5    2    3 2    
     6    2    4 am   BACKBONE|DICT|INTERRES
     7    4    5 1    
     8    4   85 1    
     9    5    6 1    
    10    5   80 1    
    11    5   86 1    
    12    6    7 1    
    13    6   87 1    
    14    6   88 1    
    15    7    8 1    
    16    8    9 1    
    17    8   89 1    
    18    8   90 1    
    19    9   10 ar   
    20    9   14 ar   
    21   10   11 ar   
    22   10   91 1    
    23   11   12 ar   
    24   11   58 1    
    25   12   13 ar   
    26   12   92 1    
    27   13   14 ar   
    28   13   15 1    
    29   14   93 1    
    30   15   16 1    
    31   15   94 1    
    32   15   95 1    
    33   16   17 1    
    34   17   18 1    
    35   17   96 1    
    36   17   97 1    
    37   18   19 1    
    38   18   22 1    
    39   18   98 1    
    40   19   20 am   BACKBONE|DICT|INTERRES
    41   19   21 2    
    42   20   99 1    
    43   20  100 1    
    44   22   23 am   BACKBONE|DICT|INTERRES
    45   22  101 1    
    46   23   24 2    
    47   23   25 1    
    48   25   26 1    
    49   25   27 1    
    50   25  102 1    
    51   26  103 1    
    52   26  104 1    
    53   26  105 1    
    54   27   28 am   BACKBONE|DICT|INTERRES
    55   27  106 1    
    56   28   29 2    
    57   28   30 1    
    58   30   31 1    
    59   30   32 1    
    60   30  107 1    
    61   31  108 1    
    62   31  109 1    
    63   31  110 1    
    64   32   33 am   BACKBONE|DICT|INTERRES
    65   32  111 1    
    66   33   34 2    
    67   33   35 1    
    68   35   36 1    
    69   35   37 1    
    70   35  112 1    
    71   36  113 1    
    72   36  114 1    
    73   36  115 1    
    74   37   38 am   BACKBONE|DICT|INTERRES
    75   37  116 1    
    76   38   39 2    
    77   38   40 1    
    78   40   41 1    
    79   40   42 1    
    80   40  117 1    
    81   41  118 1    
    82   41  119 1    
    83   41  120 1    
    84   42   43 am   BACKBONE|DICT|INTERRES
    85   42  121 1    
    86   43   44 2    
    87   43   45 1    
    88   45   46 1    
    89   45   47 1    
    90   45  122 1    
    91   46  123 1    
    92   46  124 1    
    93   46  125 1    
    94   47   48 am   BACKBONE|DICT|INTERRES
    95   47  126 1    
    96   48   49 2    
    97   48   50 1    
    98   50   51 1    
    99   50   52 1    
   100   50  127 1    
   101   51  128 1    
   102   51  129 1    
   103   51  130 1    
   104   52   53 am   BACKBONE|DICT|INTERRES
   105   52  131 1    
   106   53   54 2    
   107   53   55 1    
   108   55   56 1    
   109   55   59 1    
   110   55  132 1    
   111   56   57 1    
   112   56  133 1    
   113   56  134 1    
   114   57   58 1    
   115   58  135 1    
   116   58  136 1    
   117   59   60 am   BACKBONE|DICT|INTERRES
   118   59  137 1    
   119   60   61 2    
   120   60   62 1    
   121   62   63 1    
   122   62   64 1    
   123   62  138 1    
   124   63  139 1    
   125   63  140 1    
   126   63  141 1    
   127   64   65 am   BACKBONE|DICT|INTERRES
   128   64  142 1    
   129   65   66 2    
   130   65   67 1    
   131   67   68 1    
   132   67   69 1    
   133   67  143 1    
   134   68  144 1    
   135   68  145 1    
   136   68  146 1    
   137   69   70 am   BACKBONE|DICT|INTERRES
   138   69  147 1    
   139   70   71 2    
   140   70   72 1    
   141   72   73 1    
   142   72   74 1    
   143   72  148 1    
   144   73  149 1    
   145   73  150 1    
   146   73  151 1    
   147   74   75 am   BACKBONE|DICT|INTERRES
   148   74  152 1    
   149   75   76 2    
   150   75   77 1    
   151   77   78 1    
   152   77   79 1    
   153   77  153 1    
   154   78  154 1    
   155   78  155 1    
   156   78  156 1    
   157   79   80 am   BACKBONE|DICT|INTERRES
   158   79  157 1    
   159   80   81 2    
@<TRIPOS>SUBSTRUCTURE
     1 UNK         1 GROUP             0       ****    0 ROOT    
