@<TRIPOS>MOLECULE
3R207
157   159    1
SMALL
USER_CHARGES


@<TRIPOS>ATOM
      1 CA        -47.0618  -30.7680    1.6939 C.3       0 UNK        -0.1975 
      2 C         -47.5388  -29.3549    1.9946 C.2       0 UNK         0.4852 
      3 O         -46.7901  -28.3997    1.7854 O.2       0 UNK        -0.5216 
      4 N         -48.7800  -29.2169    2.4800 N.am      1 UNK        -0.4461 
      5 CA        -49.4066  -27.9461    2.8671 C.3       1 UNK         0.0864 
      6 C6        -50.9390  -28.0938    3.0533 C.3       14 UNK        -0.0898 
      7 S7        -51.4046  -29.4294    4.2141 S.3       14 UNK        -0.2598 
      8 C8        -52.6976  -28.6475    5.2289 C.3       14 UNK         0.0286 
      9 C9        -52.6065  -29.1209    6.6707 C.ar      14 UNK        -0.0844 
     10 C10       -52.1018  -28.2689    7.6554 C.ar      14 UNK        -0.0881 
     11 C11       -52.0001  -28.6985    8.9806 C.ar      14 UNK        -0.0643 
     12 C12       -52.3977  -29.9960    9.3206 C.ar      14 UNK        -0.0930 
     13 C13       -52.8990  -30.8604    8.3413 C.ar      14 UNK        -0.0827 
     14 C14       -53.0111  -30.4127    7.0207 C.ar      14 UNK        -0.1249 
     15 C15       -53.2798  -32.2925    8.6892 C.3       14 UNK         0.0141 
     16 S16       -55.0378  -32.4504    9.1361 S.3       14 UNK        -0.2313 
     17 C17       -55.0319  -32.0178   10.9097 C.3       14 UNK        -0.0915 
     18 CA        -55.7005  -30.6509   11.2176 C.3       13 UNK         0.0968 
     19 C         -57.2569  -30.7422   11.1986 C.2       13 UNK         0.5732 
     20 N         -57.9334  -30.7107   12.3413 N.am      13 UNK        -0.7310 
     21 O         -57.8625  -30.8257   10.1330 O.2       13 UNK        -0.5035 
     22 N         -55.1376  -30.0711   12.4484 N.am      13 UNK        -0.4233 
     23 C         -55.2448  -28.7838   12.7973 C.2       13 UNK         0.4989 
     24 O         -55.8565  -27.9417   12.1331 O.2       13 UNK        -0.4996 
     25 CA        -54.5475  -28.3612   14.1014 C.3       12 UNK         0.0216 
     26 CB        -53.0819  -28.8467   14.1744 C.3       12 UNK        -0.1964 
     27 N         -54.6091  -26.9048   14.1874 N.am      12 UNK        -0.4276 
     28 C         -54.4136  -26.1540   15.2743 C.2       12 UNK         0.5020 
     29 O         -54.1525  -26.6114   16.3886 O.2       12 UNK        -0.5489 
     30 CA        -54.5479  -24.6383   15.0603 C.3       11 UNK         0.0294 
     31 CB        -55.9824  -24.1387   15.3253 C.3       11 UNK        -0.2019 
     32 N         -53.5240  -23.8968   15.8037 N.am      11 UNK        -0.4493 
     33 C         -53.4921  -23.4972   17.0831 C.2       11 UNK         0.4932 
     34 O         -54.4269  -23.5851   17.8813 O.2       11 UNK        -0.5029 
     35 CA        -52.1457  -22.8905   17.5237 C.3       10 UNK         0.0280 
     36 CB        -52.1591  -22.3128   18.9558 C.3       10 UNK        -0.1976 
     37 N         -51.0561  -23.8539   17.3289 N.am      10 UNK        -0.4242 
     38 C         -50.8765  -25.0236   17.9624 C.2       10 UNK         0.5072 
     39 O         -51.5292  -25.3916   18.9401 O.2       10 UNK        -0.5224 
     40 CA        -49.7962  -25.9691   17.4048 C.3       9 UNK         0.0343 
     41 CB        -50.4609  -27.1141   16.6236 C.3       9 UNK        -0.2003 
     42 N         -48.8075  -25.3150   16.5417 N.am      9 UNK        -0.4272 
     43 C         -47.8422  -24.4918   16.9752 C.2       9 UNK         0.4988 
     44 O         -47.6710  -24.2018   18.1598 O.2       9 UNK        -0.5108 
     45 CA        -46.9143  -23.8810   15.9097 C.3       8 UNK         0.0248 
     46 CB        -45.8208  -24.8828   15.5053 C.3       8 UNK        -0.2001 
     47 N         -47.6279  -23.4199   14.7151 N.am      8 UNK        -0.4140 
     48 C         -48.5176  -22.4158   14.6991 C.2       8 UNK         0.5028 
     49 O         -48.8108  -21.7415   15.6867 O.2       8 UNK        -0.5428 
     50 CA        -49.2414  -22.1464   13.3677 C.3       7 UNK         0.0264 
     51 CB        -48.3470  -21.3549   12.4006 C.3       7 UNK        -0.1988 
     52 N         -49.7111  -23.3755   12.7231 N.am      7 UNK        -0.4454 
     53 C         -50.6051  -24.2151   13.2665 C.2       7 UNK         0.5027 
     54 O         -51.1726  -24.0033   14.3375 O.2       7 UNK        -0.5083 
     55 CA        -50.8898  -25.5298   12.5182 C.3       6 UNK         0.0844 
     56 C56       -51.9493  -25.3158   11.4082 C.3       14 UNK        -0.0967 
     57 S57       -52.7731  -26.8497   10.8705 S.3       14 UNK        -0.2604 
     58 C58       -51.4426  -27.7571   10.0325 C.3       14 UNK         0.0134 
     59 N         -49.6453  -26.1103   12.0081 N.am      6 UNK        -0.4116 
     60 C         -48.6632  -26.6133   12.7680 C.2       5 UNK         0.5034 
     61 O         -48.7114  -26.6883   13.9939 O.2       5 UNK        -0.5045 
     62 CA        -47.3869  -27.0543   12.0362 C.3       5 UNK         0.0224 
     63 CB        -47.5320  -28.4873   11.5004 C.3       5 UNK        -0.1978 
     64 N         -47.0389  -26.1419   10.9431 N.am      5 UNK        -0.4737 
     65 C         -46.6063  -24.8857   11.1358 C.2       4 UNK         0.5027 
     66 O         -46.4156  -24.3991   12.2498 O.2       4 UNK        -0.5211 
     67 CA        -46.3960  -24.0047    9.8903 C.3       4 UNK         0.0297 
     68 CB        -44.9545  -24.1414    9.3770 C.3       4 UNK        -0.1993 
     69 N         -47.3312  -24.2974    8.8015 N.am      4 UNK        -0.4486 
     70 C         -48.6667  -24.2168    8.8876 C.2       3 UNK         0.4961 
     71 O         -49.2584  -23.8038    9.8849 O.2       3 UNK        -0.5105 
     72 CA        -49.4838  -24.7370    7.6888 C.3       3 UNK         0.0299 
     73 CB        -49.9265  -23.5693    6.7950 C.3       3 UNK        -0.1972 
     74 N         -48.7894  -25.7385    6.8685 N.am      3 UNK        -0.4305 
     75 C         -48.2997  -26.9103    7.2950 C.2       2 UNK         0.5006 
     76 O         -48.3853  -27.2876    8.4647 O.2       2 UNK        -0.5106 
     77 CA        -47.5437  -27.7695    6.2592 C.3       2 UNK         0.0296 
     78 CB        -46.9854  -29.0663    6.8759 C.3       2 UNK        -0.2002 
     79 N         -48.3305  -28.1202    5.0726 N.am      2 UNK        -0.4032 
     80 C         -48.7235  -27.2946    4.0906 C.2       1 UNK         0.5000 
     81 O         -48.5356  -26.0758    4.1048 O.2       1 UNK        -0.5238 
     82 H82       -46.7996  -30.8591    0.6402 H         1 UNK         0.0889 
     83 H83       -47.8250  -31.5129    1.9188 H         1 UNK         0.0889 
     84 H84       -46.1774  -30.9993    2.2868 H         1 UNK         0.0889 
     85 H85       -49.3527  -30.0372    2.6252 H         1 UNK         0.3028 
     86 H86       -49.2533  -27.2550    2.0350 H         1 UNK         0.0864 
     87 H87       -51.3985  -28.3234    2.0907 H         1 UNK         0.0720 
     88 H88       -51.3751  -27.1422    3.3616 H         1 UNK         0.0720 
     89 H89       -53.6773  -28.8947    4.8176 H         1 UNK         0.0814 
     90 H90       -52.6139  -27.5608    5.1888 H         1 UNK         0.0814 
     91 H91       -51.7832  -27.2697    7.3918 H         1 UNK         0.1469 
     92 H92       -52.3102  -30.3321   10.3445 H         1 UNK         0.1381 
     93 H93       -53.3927  -31.0775    6.2576 H         1 UNK         0.1206 
     94 H94       -53.0867  -32.9365    7.8299 H         1 UNK         0.0813 
     95 H95       -52.6470  -32.6762    9.4907 H         1 UNK         0.0813 
     96 H96       -53.9963  -32.0139   11.2519 H         1 UNK         0.0638 
     97 H97       -55.5153  -32.8221   11.4674 H         1 UNK         0.0638 
     98 H98       -55.4287  -29.9646   10.4125 H         1 UNK         0.0568 
     99 H99       -58.9397  -30.7617   12.3192 H         1 UNK         0.3450 
    100 H100      -57.4509  -30.6383   13.2221 H         1 UNK         0.3450 
    101 H101      -54.6438  -30.7069   13.0562 H         1 UNK         0.2987 
    102 H102      -55.1135  -28.7845   14.9335 H         1 UNK         0.0766 
    103 H103      -52.5982  -28.5127   15.0914 H         1 UNK         0.0798 
    104 H104      -52.4905  -28.4799   13.3356 H         1 UNK         0.0798 
    105 H105      -53.0169  -29.9347   14.1696 H         1 UNK         0.0798 
    106 H106      -54.9021  -26.4747   13.3169 H         1 UNK         0.3198 
    107 H107      -54.3241  -24.4336   14.0118 H         1 UNK         0.0843 
    108 H108      -56.0552  -23.0564   15.2186 H         1 UNK         0.0831 
    109 H109      -56.3288  -24.4050   16.3242 H         1 UNK         0.0831 
    110 H110      -56.6829  -24.5833   14.6174 H         1 UNK         0.0831 
    111 H111      -52.6440  -23.8135   15.2932 H         1 UNK         0.3133 
    112 H112      -51.9389  -22.0623   16.8439 H         1 UNK         0.0566 
    113 H113      -51.1881  -21.8964   19.2236 H         1 UNK         0.0814 
    114 H114      -52.8920  -21.5098   19.0400 H         1 UNK         0.0814 
    115 H115      -52.4200  -23.0638   19.7016 H         1 UNK         0.0814 
    116 H116      -50.4762  -23.6838   16.5165 H         1 UNK         0.3091 
    117 H117      -49.2691  -26.4006   18.2583 H         1 UNK         0.0702 
    118 H118      -49.7287  -27.8528   16.2974 H         1 UNK         0.0785 
    119 H119      -50.9817  -26.7422   15.7403 H         1 UNK         0.0785 
    120 H120      -51.1966  -27.6354   17.2379 H         1 UNK         0.0785 
    121 H121      -48.8333  -25.5670   15.5570 H         1 UNK         0.2998 
    122 H122      -46.4268  -23.0121   16.3568 H         1 UNK         0.0697 
    123 H123      -45.1068  -24.4326   14.8154 H         1 UNK         0.0825 
    124 H124      -45.2599  -25.2229   16.3768 H         1 UNK         0.0825 
    125 H125      -46.2402  -25.7654   15.0213 H         1 UNK         0.0825 
    126 H126      -47.3959  -23.8814   13.8389 H         1 UNK         0.3029 
    127 H127      -50.1211  -21.5376   13.5881 H         1 UNK         0.0897 
    128 H128      -48.8609  -21.1487   11.4613 H         1 UNK         0.0792 
    129 H129      -48.0628  -20.3950   12.8336 H         1 UNK         0.0792 
    130 H130      -47.4267  -21.8900   12.1686 H         1 UNK         0.0792 
    131 H131      -49.3442  -23.5848   11.7979 H         1 UNK         0.3086 
    132 H132      -51.3031  -26.2245   13.2528 H         1 UNK         0.0583 
    133 H133      -52.7462  -24.6598   11.7651 H         1 UNK         0.1020 
    134 H134      -51.5268  -24.8106   10.5395 H         1 UNK         0.1020 
    135 H135      -50.7554  -27.0522    9.5669 H         1 UNK         0.0694 
    136 H136      -50.8663  -28.3183   10.7691 H         1 UNK         0.0694 
    137 H137      -49.4834  -26.0335   11.0151 H         1 UNK         0.2989 
    138 H138      -46.5702  -27.0435   12.7617 H         1 UNK         0.1055 
    139 H139      -47.7400  -29.1861   12.3119 H         1 UNK         0.0806 
    140 H140      -46.6173  -28.8222   11.0110 H         1 UNK         0.0806 
    141 H141      -48.3461  -28.5748   10.7806 H         1 UNK         0.0806 
    142 H142      -47.2261  -26.4657    9.9995 H         1 UNK         0.3061 
    143 H143      -46.5557  -22.9671   10.1891 H         1 UNK         0.0734 
    144 H144      -44.7596  -23.4583    8.5501 H         1 UNK         0.0832 
    145 H145      -44.2374  -23.9052   10.1648 H         1 UNK         0.0832 
    146 H146      -44.7402  -25.1550    9.0357 H         1 UNK         0.0832 
    147 H147      -46.9344  -24.6412    7.9396 H         1 UNK         0.3156 
    148 H148      -50.3799  -25.2111    8.0916 H         1 UNK         0.0589 
    149 H149      -49.0744  -23.0697    6.3324 H         1 UNK         0.0808 
    150 H150      -50.5896  -23.9083    5.9988 H         1 UNK         0.0808 
    151 H151      -50.4713  -22.8202    7.3717 H         1 UNK         0.0808 
    152 H152      -48.6907  -25.5374    5.8749 H         1 UNK         0.3098 
    153 H153      -46.6920  -27.1736    5.9249 H         1 UNK         0.0720 
    154 H154      -47.7845  -29.7190    7.2304 H         1 UNK         0.0791 
    155 H155      -46.3397  -28.8501    7.7284 H         1 UNK         0.0791 
    156 H156      -46.3879  -29.6253    6.1555 H         1 UNK         0.0791 
    157 H157      -48.5765  -29.0949    4.9773 H         1 UNK         0.3028 
@<TRIPOS>BOND
     1    1    2 1    
     2    1   82 1    
     3    1   83 1    
     4    1   84 1    
     5    2    3 2    
     6    2    4 am   BACKBONE|DICT|INTERRES
     7    4    5 1    
     8    4   85 1    
     9    5    6 1    
    10    5   80 1    
    11    5   86 1    
    12    6    7 1    
    13    6   87 1    
    14    6   88 1    
    15    7    8 1    
    16    8    9 1    
    17    8   89 1    
    18    8   90 1    
    19    9   10 ar   
    20    9   14 ar   
    21   10   11 ar   
    22   10   91 1    
    23   11   12 ar   
    24   11   58 1    
    25   12   13 ar   
    26   12   92 1    
    27   13   14 ar   
    28   13   15 1    
    29   14   93 1    
    30   15   16 1    
    31   15   94 1    
    32   15   95 1    
    33   16   17 1    
    34   17   18 1    
    35   17   96 1    
    36   17   97 1    
    37   18   19 1    
    38   18   22 1    
    39   18   98 1    
    40   19   20 am   BACKBONE|DICT|INTERRES
    41   19   21 2    
    42   20   99 1    
    43   20  100 1    
    44   22   23 am   BACKBONE|DICT|INTERRES
    45   22  101 1    
    46   23   24 2    
    47   23   25 1    
    48   25   26 1    
    49   25   27 1    
    50   25  102 1    
    51   26  103 1    
    52   26  104 1    
    53   26  105 1    
    54   27   28 am   BACKBONE|DICT|INTERRES
    55   27  106 1    
    56   28   29 2    
    57   28   30 1    
    58   30   31 1    
    59   30   32 1    
    60   30  107 1    
    61   31  108 1    
    62   31  109 1    
    63   31  110 1    
    64   32   33 am   BACKBONE|DICT|INTERRES
    65   32  111 1    
    66   33   34 2    
    67   33   35 1    
    68   35   36 1    
    69   35   37 1    
    70   35  112 1    
    71   36  113 1    
    72   36  114 1    
    73   36  115 1    
    74   37   38 am   BACKBONE|DICT|INTERRES
    75   37  116 1    
    76   38   39 2    
    77   38   40 1    
    78   40   41 1    
    79   40   42 1    
    80   40  117 1    
    81   41  118 1    
    82   41  119 1    
    83   41  120 1    
    84   42   43 am   BACKBONE|DICT|INTERRES
    85   42  121 1    
    86   43   44 2    
    87   43   45 1    
    88   45   46 1    
    89   45   47 1    
    90   45  122 1    
    91   46  123 1    
    92   46  124 1    
    93   46  125 1    
    94   47   48 am   BACKBONE|DICT|INTERRES
    95   47  126 1    
    96   48   49 2    
    97   48   50 1    
    98   50   51 1    
    99   50   52 1    
   100   50  127 1    
   101   51  128 1    
   102   51  129 1    
   103   51  130 1    
   104   52   53 am   BACKBONE|DICT|INTERRES
   105   52  131 1    
   106   53   54 2    
   107   53   55 1    
   108   55   56 1    
   109   55   59 1    
   110   55  132 1    
   111   56   57 1    
   112   56  133 1    
   113   56  134 1    
   114   57   58 1    
   115   58  135 1    
   116   58  136 1    
   117   59   60 am   BACKBONE|DICT|INTERRES
   118   59  137 1    
   119   60   61 2    
   120   60   62 1    
   121   62   63 1    
   122   62   64 1    
   123   62  138 1    
   124   63  139 1    
   125   63  140 1    
   126   63  141 1    
   127   64   65 am   BACKBONE|DICT|INTERRES
   128   64  142 1    
   129   65   66 2    
   130   65   67 1    
   131   67   68 1    
   132   67   69 1    
   133   67  143 1    
   134   68  144 1    
   135   68  145 1    
   136   68  146 1    
   137   69   70 am   BACKBONE|DICT|INTERRES
   138   69  147 1    
   139   70   71 2    
   140   70   72 1    
   141   72   73 1    
   142   72   74 1    
   143   72  148 1    
   144   73  149 1    
   145   73  150 1    
   146   73  151 1    
   147   74   75 am   BACKBONE|DICT|INTERRES
   148   74  152 1    
   149   75   76 2    
   150   75   77 1    
   151   77   78 1    
   152   77   79 1    
   153   77  153 1    
   154   78  154 1    
   155   78  155 1    
   156   78  156 1    
   157   79   80 am   BACKBONE|DICT|INTERRES
   158   79  157 1    
   159   80   81 2    
@<TRIPOS>SUBSTRUCTURE
     1 UNK         1 GROUP             0       ****    0 ROOT    
