@<TRIPOS>MOLECULE
3R207
157   159    1
SMALL
USER_CHARGES


@<TRIPOS>ATOM
      1 CA        -45.9773  -27.1771    4.1839 C.3       0 UNK        -0.1975 
      2 C         -47.1195  -26.3065    4.6843 C.2       0 UNK         0.4852 
      3 O         -47.0379  -25.0801    4.5998 O.2       0 UNK        -0.5216 
      4 N         -48.1805  -26.9268    5.2170 N.am      1 UNK        -0.4461 
      5 CA        -49.3690  -26.2617    5.7624 C.3       1 UNK         0.0864 
      6 C6        -50.4752  -27.2674    6.1632 C.3       14 UNK        -0.0898 
      7 S7        -50.8607  -28.5084    4.8803 S.3       14 UNK        -0.2598 
      8 C8        -52.4938  -29.1261    5.4265 C.3       14 UNK         0.0286 
      9 C9        -52.5782  -29.4396    6.9198 C.ar      14 UNK        -0.0844 
     10 C10       -51.5509  -30.1254    7.5770 C.ar      14 UNK        -0.0881 
     11 C11       -51.6064  -30.3450    8.9560 C.ar      14 UNK        -0.0643 
     12 C12       -52.7204  -29.9076    9.6786 C.ar      14 UNK        -0.0930 
     13 C13       -53.7769  -29.2625    9.0263 C.ar      14 UNK        -0.0827 
     14 C14       -53.6968  -29.0282    7.6502 C.ar      14 UNK        -0.1249 
     15 C15       -54.9944  -28.7937    9.8075 C.3       14 UNK         0.0141 
     16 S16       -56.0077  -30.1977   10.3778 S.3       14 UNK        -0.2313 
     17 C17       -57.4886  -29.3430   11.0295 C.3       14 UNK        -0.0915 
     18 CA        -57.4422  -29.0468   12.5538 C.3       13 UNK         0.0968 
     19 C         -57.6170  -30.3233   13.4283 C.2       13 UNK         0.5732 
     20 N         -56.7045  -30.6504   14.3359 N.am      13 UNK        -0.7310 
     21 O         -58.6173  -31.0243   13.2928 O.2       13 UNK        -0.5035 
     22 N         -56.2680  -28.2340   12.8809 N.am      13 UNK        -0.4233 
     23 C         -56.1738  -27.3364   13.8635 C.2       13 UNK         0.4989 
     24 O         -57.0848  -27.0474   14.6419 O.2       13 UNK        -0.4996 
     25 CA        -54.8101  -26.6338   13.9676 C.3       12 UNK         0.0216 
     26 CB        -54.9861  -25.1061   13.9372 C.3       12 UNK        -0.1964 
     27 N         -54.0137  -27.0241   15.1375 N.am      12 UNK        -0.4276 
     28 C         -53.7897  -28.2735   15.5834 C.2       12 UNK         0.5020 
     29 O         -54.2782  -29.2831   15.0722 O.2       12 UNK        -0.5489 
     30 CA        -52.8404  -28.4638   16.7864 C.3       11 UNK         0.0294 
     31 CB        -51.5560  -29.1830   16.3376 C.3       11 UNK        -0.2019 
     32 N         -52.4631  -27.2220   17.4625 N.am      11 UNK        -0.4493 
     33 C         -53.2653  -26.4630   18.2212 C.2       11 UNK         0.4932 
     34 O         -54.4062  -26.7910   18.5464 O.2       11 UNK        -0.5029 
     35 CA        -52.7158  -25.0907   18.6717 C.3       10 UNK         0.0280 
     36 CB        -52.3526  -25.1253   20.1654 C.3       10 UNK        -0.1976 
     37 N         -51.5579  -24.5950   17.9084 N.am      10 UNK        -0.4242 
     38 C         -51.5207  -24.3990   16.5819 C.2       10 UNK         0.5072 
     39 O         -52.4757  -24.6372   15.8418 O.2       10 UNK        -0.5224 
     40 CA        -50.1747  -23.9354   15.9941 C.3       9 UNK         0.0343 
     41 CB        -49.0732  -24.9812   16.2523 C.3       9 UNK        -0.2003 
     42 N         -50.2471  -23.7067   14.5501 N.am      9 UNK        -0.4272 
     43 C         -50.8553  -22.6779   13.9457 C.2       9 UNK         0.4988 
     44 O         -51.3899  -21.7463   14.5491 O.2       9 UNK        -0.5108 
     45 CA        -50.8518  -22.6725   12.4085 C.3       8 UNK         0.0248 
     46 CB        -49.5422  -22.0614   11.8802 C.3       8 UNK        -0.2001 
     47 N         -51.0138  -24.0177   11.8453 N.am      8 UNK        -0.4140 
     48 C         -52.1202  -24.4635   11.2328 C.2       8 UNK         0.5028 
     49 O         -53.1489  -23.7961   11.1183 O.2       8 UNK        -0.5428 
     50 CA        -52.0890  -25.8707   10.6041 C.3       7 UNK         0.0264 
     51 CB        -52.1607  -25.7730    9.0740 C.3       7 UNK        -0.1988 
     52 N         -50.9004  -26.6470   10.9683 N.am      7 UNK        -0.4454 
     53 C         -50.8574  -27.5153   11.9885 C.2       7 UNK         0.5027 
     54 O         -51.8350  -27.7998   12.6783 O.2       7 UNK        -0.5083 
     55 CA        -49.4998  -28.1636   12.3373 C.3       6 UNK         0.0844 
     56 C56       -49.4328  -29.6477   11.8993 C.3       14 UNK        -0.0967 
     57 S57       -49.1311  -29.8996   10.1128 S.3       14 UNK        -0.2604 
     58 C58       -50.4574  -31.0595    9.6488 C.3       14 UNK         0.0134 
     59 N         -48.3165  -27.4030   11.9173 N.am      6 UNK        -0.4116 
     60 C         -48.0141  -26.1531   12.2854 C.2       5 UNK         0.5034 
     61 O         -48.7617  -25.4534   12.9660 O.2       5 UNK        -0.5045 
     62 CA        -46.6854  -25.5475   11.8067 C.3       5 UNK         0.0224 
     63 CB        -45.5894  -25.7144   12.8758 C.3       5 UNK        -0.1978 
     64 N         -46.2283  -26.0003   10.4867 N.am      5 UNK        -0.4737 
     65 C         -45.7953  -27.2097   10.0972 C.2       4 UNK         0.5027 
     66 O         -45.7533  -28.1881   10.8424 O.2       4 UNK        -0.5211 
     67 CA        -45.3618  -27.3687    8.6269 C.3       4 UNK         0.0297 
     68 CB        -46.2132  -28.4359    7.9166 C.3       4 UNK        -0.1993 
     69 N         -45.4487  -26.1058    7.8873 N.am      4 UNK        -0.4486 
     70 C         -44.4731  -25.1862    7.8309 C.2       3 UNK         0.4961 
     71 O         -43.3472  -25.3594    8.2971 O.2       3 UNK        -0.5105 
     72 CA        -44.8049  -23.8335    7.1726 C.3       3 UNK         0.0299 
     73 CB        -44.1506  -23.7274    5.7854 C.3       3 UNK        -0.1972 
     74 N         -46.2460  -23.5823    7.0607 N.am      3 UNK        -0.4305 
     75 C         -47.0323  -23.2267    8.0900 C.2       2 UNK         0.5006 
     76 O         -46.6150  -23.0501    9.2343 O.2       2 UNK        -0.5106 
     77 CA        -48.5452  -23.1078    7.8204 C.3       2 UNK         0.0296 
     78 CB        -48.9125  -21.6770    7.3985 C.3       2 UNK        -0.2002 
     79 N         -49.0296  -24.0611    6.8170 N.am      2 UNK        -0.4032 
     80 C         -48.9762  -25.3907    6.9725 C.2       1 UNK         0.5000 
     81 O         -48.5774  -25.9338    8.0057 O.2       1 UNK        -0.5238 
     82 H82       -46.2302  -28.2367    4.2135 H         1 UNK         0.0889 
     83 H83       -45.0904  -27.0211    4.7973 H         1 UNK         0.0889 
     84 H84       -45.7311  -26.9169    3.1549 H         1 UNK         0.0889 
     85 H85       -48.2031  -27.9357    5.2562 H         1 UNK         0.3028 
     86 H86       -49.7702  -25.6172    4.9775 H         1 UNK         0.0864 
     87 H87       -51.3936  -26.7273    6.3971 H         1 UNK         0.0720 
     88 H88       -50.1907  -27.8056    7.0695 H         1 UNK         0.0720 
     89 H89       -52.7370  -30.0273    4.8626 H         1 UNK         0.0814 
     90 H90       -53.2431  -28.3813    5.1536 H         1 UNK         0.0814 
     91 H91       -50.6861  -30.4582    7.0196 H         1 UNK         0.1469 
     92 H92       -52.7699  -30.0736   10.7462 H         1 UNK         0.1381 
     93 H93       -54.5035  -28.5115    7.1482 H         1 UNK         0.1206 
     94 H94       -55.6078  -28.1317    9.1941 H         1 UNK         0.0813 
     95 H95       -54.6590  -28.2021   10.6584 H         1 UNK         0.0813 
     96 H96       -58.3642  -29.9470   10.7849 H         1 UNK         0.0638 
     97 H97       -57.6258  -28.4095   10.4819 H         1 UNK         0.0638 
     98 H98       -58.3226  -28.4408   12.7758 H         1 UNK         0.0568 
     99 H99       -56.8441  -31.4774   14.8929 H         1 UNK         0.3450 
    100 H100      -55.8717  -30.0834   14.4801 H         1 UNK         0.3450 
    101 H101      -55.4361  -28.4656   12.3609 H         1 UNK         0.2987 
    102 H102      -54.2239  -26.9035   13.0889 H         1 UNK         0.0766 
    103 H103      -55.6411  -24.8001   13.1203 H         1 UNK         0.0798 
    104 H104      -54.0337  -24.6001   13.7810 H         1 UNK         0.0798 
    105 H105      -55.4197  -24.7311   14.8650 H         1 UNK         0.0798 
    106 H106      -53.5223  -26.2611   15.5954 H         1 UNK         0.3198 
    107 H107      -53.3584  -29.0994   17.5077 H         1 UNK         0.0843 
    108 H108      -51.0025  -28.5961   15.6033 H         1 UNK         0.0831 
    109 H109      -51.7879  -30.1433   15.8745 H         1 UNK         0.0831 
    110 H110      -50.8945  -29.3844   17.1804 H         1 UNK         0.0831 
    111 H111      -51.5432  -26.8626   17.2568 H         1 UNK         0.3133 
    112 H112      -53.5227  -24.3681   18.5345 H         1 UNK         0.0566 
    113 H113      -51.5266  -25.8094   20.3640 H         1 UNK         0.0814 
    114 H114      -52.0682  -24.1379   20.5296 H         1 UNK         0.0814 
    115 H115      -53.2006  -25.4561   20.7671 H         1 UNK         0.0814 
    116 H116      -50.7287  -24.3851   18.4458 H         1 UNK         0.3091 
    117 H117      -49.8972  -22.9978   16.4798 H         1 UNK         0.0702 
    118 H118      -49.3254  -25.9476   15.8130 H         1 UNK         0.0785 
    119 H119      -48.1218  -24.6642   15.8239 H         1 UNK         0.0785 
    120 H120      -48.9038  -25.1375   17.3180 H         1 UNK         0.0785 
    121 H121      -49.7995  -24.4126   13.9703 H         1 UNK         0.2998 
    122 H122      -51.6713  -22.0270   12.0856 H         1 UNK         0.0697 
    123 H123      -48.6734  -22.6617   12.1526 H         1 UNK         0.0825 
    124 H124      -49.3869  -21.0606   12.2857 H         1 UNK         0.0825 
    125 H125      -49.5582  -21.9694   10.7944 H         1 UNK         0.0825 
    126 H126      -50.2358  -24.6552   11.9731 H         1 UNK         0.3029 
    127 H127      -52.9865  -26.3914   10.9425 H         1 UNK         0.0897 
    128 H128      -53.0862  -25.2925    8.7542 H         1 UNK         0.0792 
    129 H129      -52.1369  -26.7634    8.6212 H         1 UNK         0.0792 
    130 H130      -51.3336  -25.1907    8.6697 H         1 UNK         0.0792 
    131 H131      -50.0643  -26.5006   10.4186 H         1 UNK         0.3086 
    132 H132      -49.4653  -28.1641   13.4290 H         1 UNK         0.0583 
    133 H133      -48.6175  -30.1382   12.4333 H         1 UNK         0.1020 
    134 H134      -50.3349  -30.1754   12.2145 H         1 UNK         0.1020 
    135 H135      -50.0375  -31.8075    8.9744 H         1 UNK         0.0694 
    136 H136      -50.8148  -31.6144   10.5171 H         1 UNK         0.0694 
    137 H137      -47.6255  -27.9086   11.3716 H         1 UNK         0.2989 
    138 H138      -46.8670  -24.4771   11.6945 H         1 UNK         0.1055 
    139 H139      -45.9022  -25.2745   13.8240 H         1 UNK         0.0806 
    140 H140      -44.6663  -25.2174   12.5776 H         1 UNK         0.0806 
    141 H141      -45.3599  -26.7630   13.0674 H         1 UNK         0.0806 
    142 H142      -46.2551  -25.2804    9.7759 H         1 UNK         0.3061 
    143 H143      -44.3265  -27.7160    8.6321 H         1 UNK         0.0734 
    144 H144      -45.8953  -28.5773    6.8844 H         1 UNK         0.0832 
    145 H145      -46.1208  -29.4019    8.4150 H         1 UNK         0.0832 
    146 H146      -47.2727  -28.1800    7.9146 H         1 UNK         0.0832 
    147 H147      -46.3646  -25.8682    7.5284 H         1 UNK         0.3156 
    148 H148      -44.3728  -23.0529    7.8028 H         1 UNK         0.0589 
    149 H149      -44.4991  -24.5065    5.1080 H         1 UNK         0.0808 
    150 H150      -44.3557  -22.7625    5.3216 H         1 UNK         0.0808 
    151 H151      -43.0667  -23.8259    5.8592 H         1 UNK         0.0808 
    152 H152      -46.6663  -23.7698    6.1551 H         1 UNK         0.3098 
    153 H153      -49.0605  -23.3280    8.7579 H         1 UNK         0.0720 
    154 H154      -49.9912  -21.5591    7.2927 H         1 UNK         0.0791 
    155 H155      -48.4485  -21.4024    6.4503 H         1 UNK         0.0791 
    156 H156      -48.5814  -20.9539    8.1454 H         1 UNK         0.0791 
    157 H157      -49.3341  -23.6799    5.9323 H         1 UNK         0.3028 
@<TRIPOS>BOND
     1    1    2 1    
     2    1   82 1    
     3    1   83 1    
     4    1   84 1    
     5    2    3 2    
     6    2    4 am   BACKBONE|DICT|INTERRES
     7    4    5 1    
     8    4   85 1    
     9    5    6 1    
    10    5   80 1    
    11    5   86 1    
    12    6    7 1    
    13    6   87 1    
    14    6   88 1    
    15    7    8 1    
    16    8    9 1    
    17    8   89 1    
    18    8   90 1    
    19    9   10 ar   
    20    9   14 ar   
    21   10   11 ar   
    22   10   91 1    
    23   11   12 ar   
    24   11   58 1    
    25   12   13 ar   
    26   12   92 1    
    27   13   14 ar   
    28   13   15 1    
    29   14   93 1    
    30   15   16 1    
    31   15   94 1    
    32   15   95 1    
    33   16   17 1    
    34   17   18 1    
    35   17   96 1    
    36   17   97 1    
    37   18   19 1    
    38   18   22 1    
    39   18   98 1    
    40   19   20 am   BACKBONE|DICT|INTERRES
    41   19   21 2    
    42   20   99 1    
    43   20  100 1    
    44   22   23 am   BACKBONE|DICT|INTERRES
    45   22  101 1    
    46   23   24 2    
    47   23   25 1    
    48   25   26 1    
    49   25   27 1    
    50   25  102 1    
    51   26  103 1    
    52   26  104 1    
    53   26  105 1    
    54   27   28 am   BACKBONE|DICT|INTERRES
    55   27  106 1    
    56   28   29 2    
    57   28   30 1    
    58   30   31 1    
    59   30   32 1    
    60   30  107 1    
    61   31  108 1    
    62   31  109 1    
    63   31  110 1    
    64   32   33 am   BACKBONE|DICT|INTERRES
    65   32  111 1    
    66   33   34 2    
    67   33   35 1    
    68   35   36 1    
    69   35   37 1    
    70   35  112 1    
    71   36  113 1    
    72   36  114 1    
    73   36  115 1    
    74   37   38 am   BACKBONE|DICT|INTERRES
    75   37  116 1    
    76   38   39 2    
    77   38   40 1    
    78   40   41 1    
    79   40   42 1    
    80   40  117 1    
    81   41  118 1    
    82   41  119 1    
    83   41  120 1    
    84   42   43 am   BACKBONE|DICT|INTERRES
    85   42  121 1    
    86   43   44 2    
    87   43   45 1    
    88   45   46 1    
    89   45   47 1    
    90   45  122 1    
    91   46  123 1    
    92   46  124 1    
    93   46  125 1    
    94   47   48 am   BACKBONE|DICT|INTERRES
    95   47  126 1    
    96   48   49 2    
    97   48   50 1    
    98   50   51 1    
    99   50   52 1    
   100   50  127 1    
   101   51  128 1    
   102   51  129 1    
   103   51  130 1    
   104   52   53 am   BACKBONE|DICT|INTERRES
   105   52  131 1    
   106   53   54 2    
   107   53   55 1    
   108   55   56 1    
   109   55   59 1    
   110   55  132 1    
   111   56   57 1    
   112   56  133 1    
   113   56  134 1    
   114   57   58 1    
   115   58  135 1    
   116   58  136 1    
   117   59   60 am   BACKBONE|DICT|INTERRES
   118   59  137 1    
   119   60   61 2    
   120   60   62 1    
   121   62   63 1    
   122   62   64 1    
   123   62  138 1    
   124   63  139 1    
   125   63  140 1    
   126   63  141 1    
   127   64   65 am   BACKBONE|DICT|INTERRES
   128   64  142 1    
   129   65   66 2    
   130   65   67 1    
   131   67   68 1    
   132   67   69 1    
   133   67  143 1    
   134   68  144 1    
   135   68  145 1    
   136   68  146 1    
   137   69   70 am   BACKBONE|DICT|INTERRES
   138   69  147 1    
   139   70   71 2    
   140   70   72 1    
   141   72   73 1    
   142   72   74 1    
   143   72  148 1    
   144   73  149 1    
   145   73  150 1    
   146   73  151 1    
   147   74   75 am   BACKBONE|DICT|INTERRES
   148   74  152 1    
   149   75   76 2    
   150   75   77 1    
   151   77   78 1    
   152   77   79 1    
   153   77  153 1    
   154   78  154 1    
   155   78  155 1    
   156   78  156 1    
   157   79   80 am   BACKBONE|DICT|INTERRES
   158   79  157 1    
   159   80   81 2    
@<TRIPOS>SUBSTRUCTURE
     1 UNK         1 GROUP             0       ****    0 ROOT    
