@<TRIPOS>MOLECULE
3R207
157   159    1
SMALL
USER_CHARGES


@<TRIPOS>ATOM
      1 CA        -50.3656  -26.8918    6.3011 C.3       0 UNK        -0.1975 
      2 C         -49.2040  -26.8443    7.2823 C.2       0 UNK         0.4852 
      3 O         -48.2693  -26.0705    7.0827 O.2       0 UNK        -0.5216 
      4 N         -49.2477  -27.6721    8.3346 N.am      1 UNK        -0.4461 
      5 CA        -48.1887  -27.8007    9.3416 C.3       1 UNK         0.0864 
      6 C6        -48.6398  -28.6336   10.5648 C.3       14 UNK        -0.0898 
      7 S7        -49.9095  -27.7484   11.5257 S.3       14 UNK        -0.2598 
      8 C8        -51.4508  -28.4509   10.8633 C.3       14 UNK         0.0286 
      9 C9        -52.5071  -27.3666   10.7631 C.ar      14 UNK        -0.0844 
     10 C10       -52.6051  -26.5884    9.6078 C.ar      14 UNK        -0.0881 
     11 C11       -53.5083  -25.5255    9.5422 C.ar      14 UNK        -0.0643 
     12 C12       -54.3461  -25.2676   10.6327 C.ar      14 UNK        -0.0930 
     13 C13       -54.2673  -26.0474   11.7913 C.ar      14 UNK        -0.0827 
     14 C14       -53.3476  -27.1000   11.8451 C.ar      14 UNK        -0.1249 
     15 C15       -55.1160  -25.6936   13.0078 C.3       14 UNK         0.0141 
     16 S16       -55.9738  -27.1278   13.7305 S.3       14 UNK        -0.2313 
     17 C17       -57.3002  -27.4084   12.5106 C.3       14 UNK        -0.0915 
     18 CA        -58.4318  -28.2947   13.0929 C.3       13 UNK         0.0968 
     19 C         -59.6321  -28.3898   12.1141 C.2       13 UNK         0.5732 
     20 N         -60.5495  -27.4339   12.1662 N.am      13 UNK        -0.7310 
     21 O         -59.7218  -29.2969   11.2869 O.2       13 UNK        -0.5035 
     22 N         -57.9186  -29.6176   13.4645 N.am      13 UNK        -0.4233 
     23 C         -58.4872  -30.4627   14.3318 C.2       13 UNK         0.4989 
     24 O         -59.5251  -30.2132   14.9473 O.2       13 UNK        -0.4996 
     25 CA        -57.7862  -31.8196   14.5612 C.3       12 UNK         0.0216 
     26 CB        -58.6702  -32.9755   14.0621 C.3       12 UNK        -0.1964 
     27 N         -56.4670  -31.9213   13.9234 N.am      12 UNK        -0.4276 
     28 C         -55.3571  -31.3042   14.3500 C.2       12 UNK         0.5020 
     29 O         -55.2938  -30.6418   15.3883 O.2       12 UNK        -0.5489 
     30 CA        -54.1313  -31.4179   13.4353 C.3       11 UNK         0.0294 
     31 CB        -54.3920  -30.7488   12.0686 C.3       11 UNK        -0.2019 
     32 N         -52.9817  -30.7973   14.0904 N.am      11 UNK        -0.4493 
     33 C         -51.6988  -31.0210   13.7896 C.2       11 UNK         0.4932 
     34 O         -51.3382  -31.7786   12.8871 O.2       11 UNK        -0.5029 
     35 CA        -50.6482  -30.2581   14.6192 C.3       10 UNK         0.0280 
     36 CB        -49.2050  -30.5588   14.1717 C.3       10 UNK        -0.1976 
     37 N         -50.8605  -28.8102   14.5666 N.am      10 UNK        -0.4242 
     38 C         -51.6851  -28.1176   15.3621 C.2       10 UNK         0.5072 
     39 O         -52.4185  -28.6523   16.1958 O.2       10 UNK        -0.5224 
     40 CA        -51.6972  -26.5821   15.1961 C.3       9 UNK         0.0343 
     41 CB        -52.2387  -25.8547   16.4440 C.3       9 UNK        -0.2003 
     42 N         -50.4131  -25.9974   14.7868 N.am      9 UNK        -0.4272 
     43 C         -49.2310  -26.0962   15.4205 C.2       9 UNK         0.4988 
     44 O         -49.0403  -26.7841   16.4239 O.2       9 UNK        -0.5108 
     45 CA        -48.0554  -25.2739   14.8552 C.3       8 UNK         0.0248 
     46 CB        -47.1849  -26.1378   13.9283 C.3       8 UNK        -0.2001 
     47 N         -48.4822  -24.0656   14.1430 N.am      8 UNK        -0.4140 
     48 C         -49.0873  -23.0175   14.7277 C.2       8 UNK         0.5028 
     49 O         -49.2248  -22.9089   15.9470 O.2       8 UNK        -0.5428 
     50 CA        -49.6574  -21.9056   13.8220 C.3       7 UNK         0.0264 
     51 CB        -48.7685  -20.6524   13.8878 C.3       7 UNK        -0.1988 
     52 N         -49.8369  -22.2842   12.4174 N.am      7 UNK        -0.4454 
     53 C         -50.6056  -23.2850   11.9594 C.2       7 UNK         0.5027 
     54 O         -51.3147  -23.9807   12.6868 O.2       7 UNK        -0.5083 
     55 CA        -50.5219  -23.5994   10.4479 C.3       6 UNK         0.0844 
     56 C56       -51.7081  -22.9471    9.6938 C.3       14 UNK        -0.0967 
     57 S57       -51.9700  -23.7227    8.0624 S.3       14 UNK        -0.2604 
     58 C58       -53.5403  -24.6249    8.3131 C.3       14 UNK         0.0134 
     59 N         -49.2299  -23.2261    9.8477 N.am      6 UNK        -0.4116 
     60 C         -48.0213  -23.6421   10.2512 C.2       5 UNK         0.5034 
     61 O         -47.8515  -24.4623   11.1551 O.2       5 UNK        -0.5045 
     62 CA        -46.8063  -22.9863    9.5677 C.3       5 UNK         0.0224 
     63 CB        -45.4852  -23.3156   10.2870 C.3       5 UNK        -0.1978 
     64 N         -46.7039  -23.3522    8.1525 N.am      5 UNK        -0.4737 
     65 C         -47.4489  -22.8184    7.1727 C.2       4 UNK         0.5027 
     66 O         -48.2961  -21.9482    7.3857 O.2       4 UNK        -0.5211 
     67 CA        -47.2575  -23.3398    5.7320 C.3       4 UNK         0.0297 
     68 CB        -47.3415  -22.2100    4.6825 C.3       4 UNK        -0.1993 
     69 N         -46.0632  -24.1756    5.5371 N.am      4 UNK        -0.4486 
     70 C         -44.7777  -23.7906    5.5511 C.2       3 UNK         0.4961 
     71 O         -44.4113  -22.6247    5.7072 O.2       3 UNK        -0.5105 
     72 CA        -43.7253  -24.9107    5.3705 C.3       3 UNK         0.0299 
     73 CB        -42.3070  -24.4608    5.7820 C.3       3 UNK        -0.1972 
     74 N         -44.0694  -26.1753    6.0423 N.am      3 UNK        -0.4305 
     75 C         -44.3615  -26.3268    7.3414 C.2       2 UNK         0.5006 
     76 O         -44.4104  -25.3969    8.1479 O.2       2 UNK        -0.5106 
     77 CA        -44.6845  -27.7404    7.8327 C.3       2 UNK         0.0296 
     78 CB        -43.5092  -28.3422    8.6199 C.3       2 UNK        -0.2002 
     79 N         -45.8458  -27.5983    8.6999 N.am      2 UNK        -0.4032 
     80 C         -46.9251  -28.3832    8.6808 C.2       1 UNK         0.5000 
     81 O         -46.9744  -29.4847    8.1267 O.2       1 UNK        -0.5238 
     82 H82       -51.1052  -27.6433    6.5761 H         1 UNK         0.0889 
     83 H83       -50.0001  -27.1271    5.3021 H         1 UNK         0.0889 
     84 H84       -50.8616  -25.9227    6.2609 H         1 UNK         0.0889 
     85 H85       -50.0076  -28.3280    8.4191 H         1 UNK         0.3028 
     86 H86       -47.9545  -26.7934    9.6943 H         1 UNK         0.0864 
     87 H87       -47.7968  -28.8089   11.2360 H         1 UNK         0.0720 
     88 H88       -49.0033  -29.6194   10.2687 H         1 UNK         0.0720 
     89 H89       -51.7876  -29.2537   11.5168 H         1 UNK         0.0814 
     90 H90       -51.2888  -28.9028    9.8850 H         1 UNK         0.0814 
     91 H91       -51.9432  -26.7719    8.7755 H         1 UNK         0.1469 
     92 H92       -55.0358  -24.4358   10.5924 H         1 UNK         0.1381 
     93 H93       -53.2661  -27.6982   12.7410 H         1 UNK         0.1206 
     94 H94       -54.4638  -25.2597   13.7665 H         1 UNK         0.0813 
     95 H95       -55.8502  -24.9241   12.7648 H         1 UNK         0.0813 
     96 H96       -56.8659  -27.8616   11.6172 H         1 UNK         0.0638 
     97 H97       -57.6964  -26.4380   12.2059 H         1 UNK         0.0638 
     98 H98       -58.7947  -27.8165   14.0055 H         1 UNK         0.0568 
     99 H99       -61.3303  -27.4702   11.5295 H         1 UNK         0.3450 
    100 H100      -60.4813  -26.6801   12.8331 H         1 UNK         0.3450 
    101 H101      -57.0770  -29.9080   12.9939 H         1 UNK         0.2987 
    102 H102      -57.6540  -31.9325   15.6394 H         1 UNK         0.0766 
    103 H103      -59.6454  -32.9620   14.5510 H         1 UNK         0.0798 
    104 H104      -58.2179  -33.9439   14.2772 H         1 UNK         0.0798 
    105 H105      -58.8452  -32.9159   12.9871 H         1 UNK         0.0798 
    106 H106      -56.4247  -32.4576   13.0678 H         1 UNK         0.3198 
    107 H107      -53.9226  -32.4800   13.2890 H         1 UNK         0.0843 
    108 H108      -54.6075  -29.6855   12.1761 H         1 UNK         0.0831 
    109 H109      -55.2384  -31.2021   11.5523 H         1 UNK         0.0831 
    110 H110      -53.5351  -30.8522   11.4040 H         1 UNK         0.0831 
    111 H111      -53.2144  -30.1971   14.8787 H         1 UNK         0.3133 
    112 H112      -50.7469  -30.5958   15.6530 H         1 UNK         0.0566 
    113 H113      -49.0358  -30.2751   13.1326 H         1 UNK         0.0814 
    114 H114      -48.9827  -31.6231   14.2590 H         1 UNK         0.0814 
    115 H115      -48.4795  -30.0260   14.7871 H         1 UNK         0.0814 
    116 H116      -50.3360  -28.3028   13.8661 H         1 UNK         0.3091 
    117 H117      -52.3853  -26.3696   14.3803 H         1 UNK         0.0702 
    118 H118      -52.2655  -24.7756   16.2918 H         1 UNK         0.0785 
    119 H119      -51.6261  -26.0548   17.3238 H         1 UNK         0.0785 
    120 H120      -53.2564  -26.1734   16.6735 H         1 UNK         0.0785 
    121 H121      -50.4664  -25.3961   13.9705 H         1 UNK         0.2998 
    122 H122      -47.4402  -24.9612   15.7016 H         1 UNK         0.0697 
    123 H123      -47.7335  -26.4597   13.0435 H         1 UNK         0.0825 
    124 H124      -46.8369  -27.0355   14.4412 H         1 UNK         0.0825 
    125 H125      -46.3030  -25.5931   13.5909 H         1 UNK         0.0825 
    126 H126      -48.3839  -24.0804   13.1329 H         1 UNK         0.3029 
    127 H127      -50.6428  -21.6504   14.2178 H         1 UNK         0.0897 
    128 H128      -47.7742  -20.8412   13.4807 H         1 UNK         0.0792 
    129 H129      -48.6397  -20.3180   14.9183 H         1 UNK         0.0792 
    130 H130      -49.2082  -19.8222   13.3347 H         1 UNK         0.0792 
    131 H131      -49.2948  -21.7638   11.7436 H         1 UNK         0.3086 
    132 H132      -50.6057  -24.6849   10.3641 H         1 UNK         0.0583 
    133 H133      -52.6324  -23.0154   10.2704 H         1 UNK         0.1020 
    134 H134      -51.5343  -21.8790    9.5511 H         1 UNK         0.1020 
    135 H135      -54.3533  -23.9008    8.3850 H         1 UNK         0.0694 
    136 H136      -53.7455  -25.2307    7.4296 H         1 UNK         0.0694 
    137 H137      -49.2632  -22.6047    9.0455 H         1 UNK         0.2989 
    138 H138      -46.9437  -21.9046    9.6340 H         1 UNK         0.1055 
    139 H139      -45.3118  -24.3898   10.3504 H         1 UNK         0.0806 
    140 H140      -45.4943  -22.9329   11.3083 H         1 UNK         0.0806 
    141 H141      -44.6309  -22.8674    9.7791 H         1 UNK         0.0806 
    142 H142      -46.0289  -24.0722    7.9185 H         1 UNK         0.3061 
    143 H143      -48.1074  -23.9970    5.5463 H         1 UNK         0.0734 
    144 H144      -46.5904  -21.4385    4.8525 H         1 UNK         0.0832 
    145 H145      -47.2085  -22.5944    3.6715 H         1 UNK         0.0832 
    146 H146      -48.3156  -21.7205    4.7150 H         1 UNK         0.0832 
    147 H147      -46.2526  -25.1652    5.4489 H         1 UNK         0.3156 
    148 H148      -43.7024  -25.1293    4.3021 H         1 UNK         0.0589 
    149 H149      -41.5754  -25.2514    5.6162 H         1 UNK         0.0808 
    150 H150      -41.9841  -23.5965    5.2003 H         1 UNK         0.0808 
    151 H151      -42.2637  -24.1790    6.8346 H         1 UNK         0.0808 
    152 H152      -44.0737  -26.9961    5.4515 H         1 UNK         0.3098 
    153 H153      -44.9199  -28.3767    6.9766 H         1 UNK         0.0720 
    154 H154      -43.2324  -27.7190    9.4714 H         1 UNK         0.0791 
    155 H155      -42.6269  -28.4433    7.9868 H         1 UNK         0.0791 
    156 H156      -43.7549  -29.3347    8.9977 H         1 UNK         0.0791 
    157 H157      -45.9049  -26.6903    9.1440 H         1 UNK         0.3028 
@<TRIPOS>BOND
     1    1    2 1    
     2    1   82 1    
     3    1   83 1    
     4    1   84 1    
     5    2    3 2    
     6    2    4 am   BACKBONE|DICT|INTERRES
     7    4    5 1    
     8    4   85 1    
     9    5    6 1    
    10    5   80 1    
    11    5   86 1    
    12    6    7 1    
    13    6   87 1    
    14    6   88 1    
    15    7    8 1    
    16    8    9 1    
    17    8   89 1    
    18    8   90 1    
    19    9   10 ar   
    20    9   14 ar   
    21   10   11 ar   
    22   10   91 1    
    23   11   12 ar   
    24   11   58 1    
    25   12   13 ar   
    26   12   92 1    
    27   13   14 ar   
    28   13   15 1    
    29   14   93 1    
    30   15   16 1    
    31   15   94 1    
    32   15   95 1    
    33   16   17 1    
    34   17   18 1    
    35   17   96 1    
    36   17   97 1    
    37   18   19 1    
    38   18   22 1    
    39   18   98 1    
    40   19   20 am   BACKBONE|DICT|INTERRES
    41   19   21 2    
    42   20   99 1    
    43   20  100 1    
    44   22   23 am   BACKBONE|DICT|INTERRES
    45   22  101 1    
    46   23   24 2    
    47   23   25 1    
    48   25   26 1    
    49   25   27 1    
    50   25  102 1    
    51   26  103 1    
    52   26  104 1    
    53   26  105 1    
    54   27   28 am   BACKBONE|DICT|INTERRES
    55   27  106 1    
    56   28   29 2    
    57   28   30 1    
    58   30   31 1    
    59   30   32 1    
    60   30  107 1    
    61   31  108 1    
    62   31  109 1    
    63   31  110 1    
    64   32   33 am   BACKBONE|DICT|INTERRES
    65   32  111 1    
    66   33   34 2    
    67   33   35 1    
    68   35   36 1    
    69   35   37 1    
    70   35  112 1    
    71   36  113 1    
    72   36  114 1    
    73   36  115 1    
    74   37   38 am   BACKBONE|DICT|INTERRES
    75   37  116 1    
    76   38   39 2    
    77   38   40 1    
    78   40   41 1    
    79   40   42 1    
    80   40  117 1    
    81   41  118 1    
    82   41  119 1    
    83   41  120 1    
    84   42   43 am   BACKBONE|DICT|INTERRES
    85   42  121 1    
    86   43   44 2    
    87   43   45 1    
    88   45   46 1    
    89   45   47 1    
    90   45  122 1    
    91   46  123 1    
    92   46  124 1    
    93   46  125 1    
    94   47   48 am   BACKBONE|DICT|INTERRES
    95   47  126 1    
    96   48   49 2    
    97   48   50 1    
    98   50   51 1    
    99   50   52 1    
   100   50  127 1    
   101   51  128 1    
   102   51  129 1    
   103   51  130 1    
   104   52   53 am   BACKBONE|DICT|INTERRES
   105   52  131 1    
   106   53   54 2    
   107   53   55 1    
   108   55   56 1    
   109   55   59 1    
   110   55  132 1    
   111   56   57 1    
   112   56  133 1    
   113   56  134 1    
   114   57   58 1    
   115   58  135 1    
   116   58  136 1    
   117   59   60 am   BACKBONE|DICT|INTERRES
   118   59  137 1    
   119   60   61 2    
   120   60   62 1    
   121   62   63 1    
   122   62   64 1    
   123   62  138 1    
   124   63  139 1    
   125   63  140 1    
   126   63  141 1    
   127   64   65 am   BACKBONE|DICT|INTERRES
   128   64  142 1    
   129   65   66 2    
   130   65   67 1    
   131   67   68 1    
   132   67   69 1    
   133   67  143 1    
   134   68  144 1    
   135   68  145 1    
   136   68  146 1    
   137   69   70 am   BACKBONE|DICT|INTERRES
   138   69  147 1    
   139   70   71 2    
   140   70   72 1    
   141   72   73 1    
   142   72   74 1    
   143   72  148 1    
   144   73  149 1    
   145   73  150 1    
   146   73  151 1    
   147   74   75 am   BACKBONE|DICT|INTERRES
   148   74  152 1    
   149   75   76 2    
   150   75   77 1    
   151   77   78 1    
   152   77   79 1    
   153   77  153 1    
   154   78  154 1    
   155   78  155 1    
   156   78  156 1    
   157   79   80 am   BACKBONE|DICT|INTERRES
   158   79  157 1    
   159   80   81 2    
@<TRIPOS>SUBSTRUCTURE
     1 UNK         1 GROUP             0       ****    0 ROOT    
