@<TRIPOS>MOLECULE
3R207
157   159    1
SMALL
USER_CHARGES


@<TRIPOS>ATOM
      1 CA        -48.7834  -25.9893    0.8502 C.3       0 UNK        -0.1975 
      2 C         -49.1831  -26.3631    2.2703 C.2       0 UNK         0.4852 
      3 O         -49.1103  -27.5382    2.6328 O.2       0 UNK        -0.5216 
      4 N         -49.6076  -25.3720    3.0675 N.am      1 UNK        -0.4461 
      5 CA        -49.9927  -25.4970    4.4787 C.3       1 UNK         0.0864 
      6 C6        -51.2418  -26.4048    4.6827 C.3       14 UNK        -0.0898 
      7 S7        -52.1725  -25.9727    6.1907 S.3       14 UNK        -0.2598 
      8 C8        -53.0284  -27.5331    6.5760 C.3       14 UNK         0.0286 
      9 C9        -53.0690  -27.7880    8.0765 C.ar      14 UNK        -0.0844 
     10 C10       -52.3212  -28.8285    8.6356 C.ar      14 UNK        -0.0881 
     11 C11       -52.3747  -29.0844   10.0086 C.ar      14 UNK        -0.0643 
     12 C12       -53.1666  -28.2746   10.8274 C.ar      14 UNK        -0.0930 
     13 C13       -53.9312  -27.2353   10.2828 C.ar      14 UNK        -0.0827 
     14 C14       -53.8742  -27.0002    8.9050 C.ar      14 UNK        -0.1249 
     15 C15       -54.8106  -26.3422   11.1588 C.3       14 UNK         0.0141 
     16 S16       -55.6624  -27.2099   12.5186 S.3       14 UNK        -0.2313 
     17 C17       -56.6554  -28.4338   11.5989 C.3       14 UNK        -0.0915 
     18 CA        -57.5442  -29.3057   12.5331 C.3       13 UNK         0.0968 
     19 C         -58.5324  -30.2206   11.7456 C.2       13 UNK         0.5732 
     20 N         -58.8909  -31.3950   12.2512 N.am      13 UNK        -0.7310 
     21 O         -59.0161  -29.8495   10.6783 O.2       13 UNK        -0.5035 
     22 N         -56.7735  -29.9857   13.5926 N.am      13 UNK        -0.4233 
     23 C         -55.8456  -30.9391   13.4215 C.2       13 UNK         0.4989 
     24 O         -55.5431  -31.4235   12.3295 O.2       13 UNK        -0.4996 
     25 CA        -55.1505  -31.4334   14.7087 C.3       12 UNK         0.0216 
     26 CB        -53.9566  -32.3739   14.4297 C.3       12 UNK        -0.1964 
     27 N         -54.7591  -30.3286   15.5988 N.am      12 UNK        -0.4276 
     28 C         -53.8966  -29.3423   15.3124 C.2       12 UNK         0.5020 
     29 O         -53.2406  -29.2739   14.2736 O.2       12 UNK        -0.5489 
     30 CA        -53.7154  -28.2577   16.3779 C.3       11 UNK         0.0294 
     31 CB        -52.5538  -28.6125   17.3211 C.3       11 UNK        -0.2019 
     32 N         -53.4113  -26.9963   15.7080 N.am      11 UNK        -0.4493 
     33 C         -54.0428  -25.8355   15.9128 C.2       11 UNK         0.4932 
     34 O         -54.9590  -25.6817   16.7231 O.2       11 UNK        -0.5029 
     35 CA        -53.5305  -24.6459   15.0810 C.3       10 UNK         0.0280 
     36 CB        -54.2570  -23.3188   15.3851 C.3       10 UNK        -0.1976 
     37 N         -52.0765  -24.4982   15.2014 N.am      10 UNK        -0.4242 
     38 C         -51.3626  -24.2387   16.3087 C.2       10 UNK         0.5072 
     39 O         -51.8516  -24.0013   17.4139 O.2       10 UNK        -0.5224 
     40 CA        -49.8288  -24.2565   16.1639 C.3       9 UNK         0.0343 
     41 CB        -49.2807  -25.6540   16.4924 C.3       9 UNK        -0.2003 
     42 N         -49.3666  -23.8509   14.8332 N.am      9 UNK        -0.4272 
     43 C         -49.4725  -22.6056   14.3444 C.2       9 UNK         0.4988 
     44 O         -49.9104  -21.6501   14.9861 O.2       9 UNK        -0.5108 
     45 CA        -49.0360  -22.3931   12.8879 C.3       8 UNK         0.0248 
     46 CB        -47.5217  -22.1567   12.7951 C.3       8 UNK        -0.2001 
     47 N         -49.4219  -23.5236   12.0418 N.am      8 UNK        -0.4140 
     48 C         -50.6607  -23.7064   11.5616 C.2       8 UNK         0.5028 
     49 O         -51.5747  -22.8926   11.6951 O.2       8 UNK        -0.5428 
     50 CA        -50.9414  -25.0267   10.8288 C.3       7 UNK         0.0264 
     51 CB        -50.7590  -24.8609    9.3158 C.3       7 UNK        -0.1988 
     52 N         -50.1257  -26.1378   11.3317 N.am      7 UNK        -0.4454 
     53 C         -50.3873  -26.7483   12.4980 C.2       7 UNK         0.5027 
     54 O         -51.3186  -26.4223   13.2361 O.2       7 UNK        -0.5083 
     55 CA        -49.4484  -27.8738   12.9738 C.3       6 UNK         0.0844 
     56 C56       -50.0358  -29.2821   12.7201 C.3       14 UNK        -0.0967 
     57 S57       -49.8933  -29.8712   10.9992 S.3       14 UNK        -0.2604 
     58 C58       -51.6212  -30.2722   10.5900 C.3       14 UNK         0.0134 
     59 N         -48.0514  -27.7658   12.5494 N.am      6 UNK        -0.4116 
     60 C         -47.2236  -26.7461   12.8096 C.2       5 UNK         0.5034 
     61 O         -47.5934  -25.6619   13.2655 O.2       5 UNK        -0.5045 
     62 CA        -45.7263  -26.9936   12.5707 C.3       5 UNK         0.0224 
     63 CB        -45.3511  -28.4776   12.3508 C.3       5 UNK        -0.1978 
     64 N         -45.2483  -26.1953   11.4460 N.am      5 UNK        -0.4737 
     65 C         -43.9944  -25.7328   11.3294 C.2       4 UNK         0.5027 
     66 O         -43.1376  -25.8737   12.2032 O.2       4 UNK        -0.5211 
     67 CA        -43.5952  -25.0267   10.0183 C.3       4 UNK         0.0297 
     68 CB        -42.6500  -25.9192    9.1963 C.3       4 UNK        -0.1993 
     69 N         -44.7425  -24.6668    9.1870 N.am      4 UNK        -0.4486 
     70 C         -45.5503  -23.6253    9.4169 C.2       3 UNK         0.4961 
     71 O         -45.3349  -22.7769   10.2810 O.2       3 UNK        -0.5105 
     72 CA        -46.8189  -23.5156    8.5519 C.3       3 UNK         0.0299 
     73 CB        -46.6852  -22.3707    7.5356 C.3       3 UNK        -0.1972 
     74 N         -47.1737  -24.7481    7.8376 N.am      3 UNK        -0.4305 
     75 C         -47.5750  -25.8961    8.3988 C.2       2 UNK         0.5006 
     76 O         -47.6426  -26.0651    9.6191 O.2       2 UNK        -0.5106 
     77 CA        -47.9865  -27.0254    7.4329 C.3       2 UNK         0.0296 
     78 CB        -48.5266  -28.2582    8.1761 C.3       2 UNK        -0.2002 
     79 N         -48.9945  -26.5915    6.4601 N.am      2 UNK        -0.4032 
     80 C         -48.7727  -25.8505    5.3662 C.2       1 UNK         0.5000 
     81 O         -47.6570  -25.4087    5.0734 O.2       1 UNK        -0.5238 
     82 H82       -48.9075  -24.9237    0.6577 H         1 UNK         0.0889 
     83 H83       -49.3938  -26.5365    0.1324 H         1 UNK         0.0889 
     84 H84       -47.7389  -26.2458    0.6754 H         1 UNK         0.0889 
     85 H85       -49.6106  -24.4272    2.7084 H         1 UNK         0.3028 
     86 H86       -50.2712  -24.4838    4.7734 H         1 UNK         0.0864 
     87 H87       -51.9311  -26.2827    3.8455 H         1 UNK         0.0720 
     88 H88       -50.9625  -27.4599    4.6839 H         1 UNK         0.0720 
     89 H89       -52.5477  -28.3687    6.0660 H         1 UNK         0.0814 
     90 H90       -54.0460  -27.4860    6.1858 H         1 UNK         0.0814 
     91 H91       -51.7077  -29.4543    8.0020 H         1 UNK         0.1469 
     92 H92       -53.2017  -28.4664   11.8900 H         1 UNK         0.1381 
     93 H93       -54.4535  -26.1966    8.4709 H         1 UNK         0.1206 
     94 H94       -54.1937  -25.5549   11.5911 H         1 UNK         0.0813 
     95 H95       -55.5656  -25.8414   10.5510 H         1 UNK         0.0813 
     96 H96       -55.9886  -29.0659   11.0108 H         1 UNK         0.0638 
     97 H97       -57.2698  -27.8852   10.8831 H         1 UNK         0.0638 
     98 H98       -58.2007  -28.6175   13.0663 H         1 UNK         0.0568 
     99 H99       -58.5148  -31.7103   13.1303 H         1 UNK         0.3450 
    100 H100      -59.5397  -31.9734   11.7414 H         1 UNK         0.3450 
    101 H101      -56.9577  -29.6633   14.5305 H         1 UNK         0.2987 
    102 H102      -55.8989  -32.0133   15.2509 H         1 UNK         0.0766 
    103 H103      -53.4941  -32.7144   15.3559 H         1 UNK         0.0798 
    104 H104      -53.1868  -31.8877   13.8293 H         1 UNK         0.0798 
    105 H105      -54.2788  -33.2613   13.8834 H         1 UNK         0.0798 
    106 H106      -55.2304  -30.3029   16.4931 H         1 UNK         0.3198 
    107 H107      -54.6386  -28.1745   16.9555 H         1 UNK         0.0843 
    108 H108      -51.6148  -28.7274   16.7777 H         1 UNK         0.0831 
    109 H109      -52.7457  -29.5495   17.8453 H         1 UNK         0.0831 
    110 H110      -52.4093  -27.8403   18.0771 H         1 UNK         0.0831 
    111 H111      -52.7427  -27.0634   14.9469 H         1 UNK         0.3133 
    112 H112      -53.7250  -24.8939   14.0365 H         1 UNK         0.0566 
    113 H113      -53.8770  -22.5091   14.7621 H         1 UNK         0.0814 
    114 H114      -55.3257  -23.4079   15.1865 H         1 UNK         0.0814 
    115 H115      -54.1450  -23.0213   16.4280 H         1 UNK         0.0814 
    116 H116      -51.5608  -24.7824   14.3753 H         1 UNK         0.3091 
    117 H117      -49.4175  -23.5507   16.8888 H         1 UNK         0.0702 
    118 H118      -48.1980  -25.6996   16.3723 H         1 UNK         0.0785 
    119 H119      -49.7254  -26.4180   15.8563 H         1 UNK         0.0785 
    120 H120      -49.5060  -25.9247   17.5248 H         1 UNK         0.0785 
    121 H121      -48.9191  -24.5598   14.2602 H         1 UNK         0.2998 
    122 H122      -49.5343  -21.4923   12.5226 H         1 UNK         0.0697 
    123 H123      -46.9479  -23.0486   13.0487 H         1 UNK         0.0825 
    124 H124      -47.2066  -21.3612   13.4718 H         1 UNK         0.0825 
    125 H125      -47.2404  -21.8494   11.7889 H         1 UNK         0.0825 
    126 H126      -48.7423  -24.2661   11.9322 H         1 UNK         0.3029 
    127 H127      -51.9875  -25.2801   11.0002 H         1 UNK         0.0897 
    128 H128      -50.7877  -25.8238    8.8077 H         1 UNK         0.0792 
    129 H129      -49.8226  -24.3648    9.0691 H         1 UNK         0.0792 
    130 H130      -51.5611  -24.2507    8.8992 H         1 UNK         0.0792 
    131 H131      -49.3122  -26.4098   10.7887 H         1 UNK         0.3086 
    132 H132      -49.4142  -27.7653   14.0583 H         1 UNK         0.0583 
    133 H133      -49.5200  -30.0055   13.3533 H         1 UNK         0.1020 
    134 H134      -51.0756  -29.3202   13.0417 H         1 UNK         0.1020 
    135 H135      -51.6201  -31.0863    9.8637 H         1 UNK         0.0694 
    136 H136      -52.1393  -30.6622   11.4680 H         1 UNK         0.0694 
    137 H137      -47.6657  -28.5940   12.1207 H         1 UNK         0.2989 
    138 H138      -45.2317  -26.6543   13.4838 H         1 UNK         0.1055 
    139 H139      -45.7158  -29.1067   13.1642 H         1 UNK         0.0806 
    140 H140      -44.2688  -28.6054   12.3193 H         1 UNK         0.0806 
    141 H141      -45.7516  -28.8675   11.4140 H         1 UNK         0.0806 
    142 H142      -45.9301  -26.0057   10.7171 H         1 UNK         0.3061 
    143 H143      -43.0563  -24.1157   10.2878 H         1 UNK         0.0734 
    144 H144      -42.3136  -25.4146    8.2904 H         1 UNK         0.0832 
    145 H145      -41.7586  -26.1762    9.7704 H         1 UNK         0.0832 
    146 H146      -43.1287  -26.8548    8.9043 H         1 UNK         0.0832 
    147 H147      -44.9876  -25.3036    8.4433 H         1 UNK         0.3156 
    148 H148      -47.6416  -23.2753    9.2285 H         1 UNK         0.0589 
    149 H149      -45.8892  -22.5625    6.8150 H         1 UNK         0.0808 
    150 H150      -47.6121  -22.2218    6.9812 H         1 UNK         0.0808 
    151 H151      -46.4539  -21.4286    8.0349 H         1 UNK         0.0808 
    152 H152      -47.1542  -24.7153    6.8214 H         1 UNK         0.3098 
    153 H153      -47.0878  -27.3286    6.8921 H         1 UNK         0.0720 
    154 H154      -48.7618  -29.0695    7.4874 H         1 UNK         0.0791 
    155 H155      -49.4321  -28.0196    8.7347 H         1 UNK         0.0791 
    156 H156      -47.7946  -28.6422    8.8881 H         1 UNK         0.0791 
    157 H157      -49.9523  -26.8490    6.6582 H         1 UNK         0.3028 
@<TRIPOS>BOND
     1    1    2 1    
     2    1   82 1    
     3    1   83 1    
     4    1   84 1    
     5    2    3 2    
     6    2    4 am   BACKBONE|DICT|INTERRES
     7    4    5 1    
     8    4   85 1    
     9    5    6 1    
    10    5   80 1    
    11    5   86 1    
    12    6    7 1    
    13    6   87 1    
    14    6   88 1    
    15    7    8 1    
    16    8    9 1    
    17    8   89 1    
    18    8   90 1    
    19    9   10 ar   
    20    9   14 ar   
    21   10   11 ar   
    22   10   91 1    
    23   11   12 ar   
    24   11   58 1    
    25   12   13 ar   
    26   12   92 1    
    27   13   14 ar   
    28   13   15 1    
    29   14   93 1    
    30   15   16 1    
    31   15   94 1    
    32   15   95 1    
    33   16   17 1    
    34   17   18 1    
    35   17   96 1    
    36   17   97 1    
    37   18   19 1    
    38   18   22 1    
    39   18   98 1    
    40   19   20 am   BACKBONE|DICT|INTERRES
    41   19   21 2    
    42   20   99 1    
    43   20  100 1    
    44   22   23 am   BACKBONE|DICT|INTERRES
    45   22  101 1    
    46   23   24 2    
    47   23   25 1    
    48   25   26 1    
    49   25   27 1    
    50   25  102 1    
    51   26  103 1    
    52   26  104 1    
    53   26  105 1    
    54   27   28 am   BACKBONE|DICT|INTERRES
    55   27  106 1    
    56   28   29 2    
    57   28   30 1    
    58   30   31 1    
    59   30   32 1    
    60   30  107 1    
    61   31  108 1    
    62   31  109 1    
    63   31  110 1    
    64   32   33 am   BACKBONE|DICT|INTERRES
    65   32  111 1    
    66   33   34 2    
    67   33   35 1    
    68   35   36 1    
    69   35   37 1    
    70   35  112 1    
    71   36  113 1    
    72   36  114 1    
    73   36  115 1    
    74   37   38 am   BACKBONE|DICT|INTERRES
    75   37  116 1    
    76   38   39 2    
    77   38   40 1    
    78   40   41 1    
    79   40   42 1    
    80   40  117 1    
    81   41  118 1    
    82   41  119 1    
    83   41  120 1    
    84   42   43 am   BACKBONE|DICT|INTERRES
    85   42  121 1    
    86   43   44 2    
    87   43   45 1    
    88   45   46 1    
    89   45   47 1    
    90   45  122 1    
    91   46  123 1    
    92   46  124 1    
    93   46  125 1    
    94   47   48 am   BACKBONE|DICT|INTERRES
    95   47  126 1    
    96   48   49 2    
    97   48   50 1    
    98   50   51 1    
    99   50   52 1    
   100   50  127 1    
   101   51  128 1    
   102   51  129 1    
   103   51  130 1    
   104   52   53 am   BACKBONE|DICT|INTERRES
   105   52  131 1    
   106   53   54 2    
   107   53   55 1    
   108   55   56 1    
   109   55   59 1    
   110   55  132 1    
   111   56   57 1    
   112   56  133 1    
   113   56  134 1    
   114   57   58 1    
   115   58  135 1    
   116   58  136 1    
   117   59   60 am   BACKBONE|DICT|INTERRES
   118   59  137 1    
   119   60   61 2    
   120   60   62 1    
   121   62   63 1    
   122   62   64 1    
   123   62  138 1    
   124   63  139 1    
   125   63  140 1    
   126   63  141 1    
   127   64   65 am   BACKBONE|DICT|INTERRES
   128   64  142 1    
   129   65   66 2    
   130   65   67 1    
   131   67   68 1    
   132   67   69 1    
   133   67  143 1    
   134   68  144 1    
   135   68  145 1    
   136   68  146 1    
   137   69   70 am   BACKBONE|DICT|INTERRES
   138   69  147 1    
   139   70   71 2    
   140   70   72 1    
   141   72   73 1    
   142   72   74 1    
   143   72  148 1    
   144   73  149 1    
   145   73  150 1    
   146   73  151 1    
   147   74   75 am   BACKBONE|DICT|INTERRES
   148   74  152 1    
   149   75   76 2    
   150   75   77 1    
   151   77   78 1    
   152   77   79 1    
   153   77  153 1    
   154   78  154 1    
   155   78  155 1    
   156   78  156 1    
   157   79   80 am   BACKBONE|DICT|INTERRES
   158   79  157 1    
   159   80   81 2    
@<TRIPOS>SUBSTRUCTURE
     1 UNK         1 GROUP             0       ****    0 ROOT    
