@<TRIPOS>MOLECULE
3R207
157   159    1
SMALL
USER_CHARGES


@<TRIPOS>ATOM
      1 CA        -51.6204  -23.1694    2.3270 C.3       0 UNK        -0.1975 
      2 C         -50.7514  -23.9152    3.3284 C.2       0 UNK         0.4852 
      3 O         -50.0267  -24.8329    2.9414 O.2       0 UNK        -0.5216 
      4 N         -50.8021  -23.5123    4.6066 N.am      1 UNK        -0.4461 
      5 CA        -50.1148  -24.0845    5.7792 C.3       1 UNK         0.0864 
      6 C6        -50.4639  -25.5711    6.0575 C.3       14 UNK        -0.0898 
      7 S7        -52.2546  -25.8695    6.2752 S.3       14 UNK        -0.2598 
      8 C8        -52.4283  -25.8949    8.0905 C.3       14 UNK         0.0286 
      9 C9        -52.3291  -27.2942    8.6970 C.ar      14 UNK        -0.0844 
     10 C10       -51.1891  -28.0853    8.5148 C.ar      14 UNK        -0.0881 
     11 C11       -51.1020  -29.3602    9.0788 C.ar      14 UNK        -0.0643 
     12 C12       -52.1659  -29.8469    9.8427 C.ar      14 UNK        -0.0930 
     13 C13       -53.3095  -29.0686   10.0431 C.ar      14 UNK        -0.0827 
     14 C14       -53.3840  -27.7951    9.4686 C.ar      14 UNK        -0.1249 
     15 C15       -54.4803  -29.6253   10.8409 C.3       14 UNK         0.0141 
     16 S16       -54.0955  -29.7878   12.6118 S.3       14 UNK        -0.2313 
     17 C17       -55.6636  -30.5204   13.1864 C.3       14 UNK        -0.0915 
     18 CA        -55.7410  -30.8009   14.7101 C.3       13 UNK         0.0968 
     19 C         -54.6771  -31.8299   15.1942 C.2       13 UNK         0.5732 
     20 N         -53.7720  -31.4744   16.0990 N.am      13 UNK        -0.7310 
     21 O         -54.6885  -32.9778   14.7552 O.2       13 UNK        -0.5035 
     22 N         -55.8042  -29.5616   15.5024 N.am      13 UNK        -0.4233 
     23 C         -56.4140  -29.4708   16.6938 C.2       13 UNK         0.4989 
     24 O         -57.0259  -30.4013   17.2205 O.2       13 UNK        -0.4996 
     25 CA        -56.3444  -28.1272   17.4341 C.3       12 UNK         0.0216 
     26 CB        -55.1102  -28.0818   18.3510 C.3       12 UNK        -0.1964 
     27 N         -56.3088  -26.9907   16.5129 N.am      12 UNK        -0.4276 
     28 C         -57.3787  -26.2759   16.1381 C.2       12 UNK         0.5020 
     29 O         -58.5229  -26.5024   16.5347 O.2       12 UNK        -0.5489 
     30 CA        -57.1482  -25.0893   15.1820 C.3       11 UNK         0.0294 
     31 CB        -57.1764  -23.7637   15.9608 C.3       11 UNK        -0.2019 
     32 N         -55.8905  -25.1747   14.4370 N.am      11 UNK        -0.4493 
     33 C         -55.6895  -25.9693   13.3775 C.2       11 UNK         0.4932 
     34 O         -56.5636  -26.6747   12.8740 O.2       11 UNK        -0.5029 
     35 CA        -54.2657  -25.9939   12.7920 C.3       10 UNK         0.0280 
     36 CB        -54.1381  -24.9389   11.6819 C.3       10 UNK        -0.1976 
     37 N         -53.1791  -25.8327   13.7738 N.am      10 UNK        -0.4242 
     38 C         -53.0069  -26.5934   14.8711 C.2       10 UNK         0.5072 
     39 O         -53.8137  -27.4555   15.2226 O.2       10 UNK        -0.5224 
     40 CA        -51.7642  -26.3586   15.7516 C.3       9 UNK         0.0343 
     41 CB        -51.1544  -27.6914   16.2246 C.3       9 UNK        -0.2003 
     42 N         -50.7321  -25.6001   15.0499 N.am      9 UNK        -0.4272 
     43 C         -50.2921  -24.3773   15.3803 C.2       9 UNK         0.4988 
     44 O         -50.6879  -23.7524   16.3649 O.2       9 UNK        -0.5108 
     45 CA        -49.2403  -23.7212   14.4584 C.3       8 UNK         0.0248 
     46 CB        -47.8501  -23.7646   15.1126 C.3       8 UNK        -0.2001 
     47 N         -49.1549  -24.3162   13.1212 N.am      8 UNK        -0.4140 
     48 C         -50.1618  -24.3662   12.2385 C.2       8 UNK         0.5028 
     49 O         -51.2529  -23.8278   12.4215 O.2       8 UNK        -0.5428 
     50 CA        -49.9510  -25.2340   10.9884 C.3       7 UNK         0.0264 
     51 CB        -49.3806  -24.3937    9.8373 C.3       7 UNK        -0.1988 
     52 N         -49.0972  -26.4021   11.2293 N.am      7 UNK        -0.4454 
     53 C         -49.3991  -27.4101   12.0649 C.2       7 UNK         0.5027 
     54 O         -50.4276  -27.4455   12.7385 O.2       7 UNK        -0.5083 
     55 CA        -48.3602  -28.5387   12.2273 C.3       6 UNK         0.0844 
     56 C56       -48.6838  -29.7751   11.3546 C.3       14 UNK        -0.0967 
     57 S57       -48.3652  -29.5281    9.5733 S.3       14 UNK        -0.2604 
     58 C58       -49.8729  -30.2223    8.8255 C.3       14 UNK         0.0134 
     59 N         -46.9933  -28.0532   12.0225 N.am      6 UNK        -0.4116 
     60 C         -46.2973  -27.3593   12.9311 C.2       5 UNK         0.5034 
     61 O         -46.6980  -27.1170   14.0695 O.2       5 UNK        -0.5045 
     62 CA        -44.9374  -26.8131   12.4736 C.3       5 UNK         0.0224 
     63 CB        -43.8936  -27.9378   12.3767 C.3       5 UNK        -0.1978 
     64 N         -45.0029  -26.0910   11.1988 N.am      5 UNK        -0.4737 
     65 C         -45.7006  -24.9712   10.9755 C.2       4 UNK         0.5027 
     66 O         -46.4598  -24.4692   11.8039 O.2       4 UNK        -0.5211 
     67 CA        -45.5214  -24.2846    9.6082 C.3       4 UNK         0.0297 
     68 CB        -44.1506  -23.5862    9.5184 C.3       4 UNK        -0.1993 
     69 N         -45.7644  -25.1359    8.4339 N.am      4 UNK        -0.4486 
     70 C         -45.0725  -26.2084    8.0129 C.2       3 UNK         0.4961 
     71 O         -44.1315  -26.7084    8.6307 O.2       3 UNK        -0.5105 
     72 CA        -45.4869  -26.8348    6.6664 C.3       3 UNK         0.0299 
     73 CB        -46.4167  -28.0350    6.9002 C.3       3 UNK        -0.1972 
     74 N         -46.1427  -25.8988    5.7502 N.am      3 UNK        -0.4305 
     75 C         -45.5790  -24.8074    5.2112 C.2       2 UNK         0.5006 
     76 O         -44.3911  -24.5133    5.3491 O.2       2 UNK        -0.5106 
     77 CA        -46.4906  -23.8708    4.3930 C.3       2 UNK         0.0296 
     78 CB        -46.2079  -24.0233    2.8894 C.3       2 UNK        -0.2002 
     79 N         -47.9304  -24.0442    4.6241 N.am      2 UNK        -0.4032 
     80 C         -48.5813  -23.8834    5.7843 C.2       1 UNK         0.5000 
     81 O         -48.0129  -23.6150    6.8447 O.2       1 UNK        -0.5238 
     82 H82       -52.2022  -22.3785    2.7999 H         1 UNK         0.0889 
     83 H83       -52.3140  -23.8597    1.8477 H         1 UNK         0.0889 
     84 H84       -50.9991  -22.7183    1.5538 H         1 UNK         0.0889 
     85 H85       -51.4021  -22.7295    4.8277 H         1 UNK         0.3028 
     86 H86       -50.4828  -23.5064    6.6287 H         1 UNK         0.0864 
     87 H87       -49.9324  -25.9065    6.9458 H         1 UNK         0.0720 
     88 H88       -50.1155  -26.2102    5.2445 H         1 UNK         0.0720 
     89 H89       -53.3947  -25.4509    8.3343 H         1 UNK         0.0814 
     90 H90       -51.6842  -25.2395    8.5365 H         1 UNK         0.0814 
     91 H91       -50.3597  -27.7284    7.9270 H         1 UNK         0.1469 
     92 H92       -52.1118  -30.8358   10.2772 H         1 UNK         0.1381 
     93 H93       -54.2713  -27.1956    9.6187 H         1 UNK         0.1206 
     94 H94       -54.7534  -30.6022   10.4393 H         1 UNK         0.0813 
     95 H95       -55.3589  -28.9879   10.7282 H         1 UNK         0.0813 
     96 H96       -55.8292  -31.4458   12.6317 H         1 UNK         0.0638 
     97 H97       -56.4774  -29.8526   12.8986 H         1 UNK         0.0638 
     98 H98       -56.6951  -31.3112   14.8560 H         1 UNK         0.0568 
     99 H99       -53.0932  -32.1501   16.4110 H         1 UNK         0.3450 
    100 H100      -53.7471  -30.5302   16.4472 H         1 UNK         0.3450 
    101 H101      -55.2400  -28.7856   15.1690 H         1 UNK         0.2987 
    102 H102      -57.2299  -28.0564   18.0696 H         1 UNK         0.0766 
    103 H103      -55.0776  -27.1549   18.9238 H         1 UNK         0.0798 
    104 H104      -54.1797  -28.1597   17.7888 H         1 UNK         0.0798 
    105 H105      -55.1270  -28.9040   19.0678 H         1 UNK         0.0798 
    106 H106      -55.4135  -26.8049   16.0712 H         1 UNK         0.3198 
    107 H107      -57.9749  -25.0816   14.4679 H         1 UNK         0.0843 
    108 H108      -56.3704  -23.7069   16.6935 H         1 UNK         0.0831 
    109 H109      -58.1165  -23.6499   16.5026 H         1 UNK         0.0831 
    110 H110      -57.0857  -22.9074   15.2921 H         1 UNK         0.0831 
    111 H111      -55.1168  -24.6195   14.7730 H         1 UNK         0.3133 
    112 H112      -54.1277  -26.9698   12.3292 H         1 UNK         0.0566 
    113 H113      -53.2229  -25.0789   11.1089 H         1 UNK         0.0814 
    114 H114      -54.9666  -25.0068   10.9754 H         1 UNK         0.0814 
    115 H115      -54.1328  -23.9255   12.0847 H         1 UNK         0.0814 
    116 H116      -52.4743  -25.1397   13.5463 H         1 UNK         0.3091 
    117 H117      -52.1075  -25.8121   16.6318 H         1 UNK         0.0702 
    118 H118      -50.2735  -27.5260   16.8450 H         1 UNK         0.0785 
    119 H119      -50.8587  -28.3177   15.3818 H         1 UNK         0.0785 
    120 H120      -51.8652  -28.2632   16.8218 H         1 UNK         0.0785 
    121 H121      -50.3781  -26.0431   14.2078 H         1 UNK         0.2998 
    122 H122      -49.5283  -22.6756   14.3328 H         1 UNK         0.0697 
    123 H123      -47.5093  -24.7895   15.2638 H         1 UNK         0.0825 
    124 H124      -47.8606  -23.2768   16.0882 H         1 UNK         0.0825 
    125 H125      -47.1067  -23.2519   14.5016 H         1 UNK         0.0825 
    126 H126      -48.2622  -24.7188   12.8544 H         1 UNK         0.3029 
    127 H127      -50.9280  -25.6181   10.6934 H         1 UNK         0.0897 
    128 H128      -49.1426  -25.0077    8.9703 H         1 UNK         0.0792 
    129 H129      -48.4765  -23.8651   10.1334 H         1 UNK         0.0792 
    130 H130      -50.0971  -23.6362    9.5177 H         1 UNK         0.0792 
    131 H131      -48.2189  -26.4372   10.7357 H         1 UNK         0.3086 
    132 H132      -48.4392  -28.8688   13.2658 H         1 UNK         0.0583 
    133 H133      -48.0733  -30.6174   11.6836 H         1 UNK         0.1020 
    134 H134      -49.7170  -30.0890   11.5155 H         1 UNK         0.1020 
    135 H135      -49.7195  -30.3088    7.7489 H         1 UNK         0.0694 
    136 H136      -50.0219  -31.2382    9.1948 H         1 UNK         0.0694 
    137 H137      -46.5877  -28.2211   11.1131 H         1 UNK         0.2989 
    138 H138      -44.6030  -26.1039   13.2343 H         1 UNK         0.1055 
    139 H139      -43.8268  -28.4916   13.3144 H         1 UNK         0.0806 
    140 H140      -42.9011  -27.5379   12.1677 H         1 UNK         0.0806 
    141 H141      -44.1367  -28.6532   11.5902 H         1 UNK         0.0806 
    142 H142      -44.4449  -26.4453   10.4237 H         1 UNK         0.3061 
    143 H143      -46.2745  -23.4977    9.5525 H         1 UNK         0.0734 
    144 H144      -44.0570  -23.0186    8.5924 H         1 UNK         0.0832 
    145 H145      -44.0167  -22.8852   10.3433 H         1 UNK         0.0832 
    146 H146      -43.3235  -24.2954    9.5598 H         1 UNK         0.0832 
    147 H147      -46.5215  -24.8137    7.8397 H         1 UNK         0.3156 
    148 H148      -44.5775  -27.1942    6.1804 H         1 UNK         0.0589 
    149 H149      -47.3665  -27.7290    7.3403 H         1 UNK         0.0808 
    150 H150      -46.6316  -28.5600    5.9694 H         1 UNK         0.0808 
    151 H151      -45.9605  -28.7580    7.5783 H         1 UNK         0.0808 
    152 H152      -47.1166  -26.0689    5.5499 H         1 UNK         0.3098 
    153 H153      -46.2380  -22.8499    4.6864 H         1 UNK         0.0720 
    154 H154      -46.7682  -23.2938    2.3041 H         1 UNK         0.0791 
    155 H155      -46.4738  -25.0180    2.5291 H         1 UNK         0.0791 
    156 H156      -45.1504  -23.8680    2.6704 H         1 UNK         0.0791 
    157 H157      -48.4982  -24.3144    3.8229 H         1 UNK         0.3028 
@<TRIPOS>BOND
     1    1    2 1    
     2    1   82 1    
     3    1   83 1    
     4    1   84 1    
     5    2    3 2    
     6    2    4 am   BACKBONE|DICT|INTERRES
     7    4    5 1    
     8    4   85 1    
     9    5    6 1    
    10    5   80 1    
    11    5   86 1    
    12    6    7 1    
    13    6   87 1    
    14    6   88 1    
    15    7    8 1    
    16    8    9 1    
    17    8   89 1    
    18    8   90 1    
    19    9   10 ar   
    20    9   14 ar   
    21   10   11 ar   
    22   10   91 1    
    23   11   12 ar   
    24   11   58 1    
    25   12   13 ar   
    26   12   92 1    
    27   13   14 ar   
    28   13   15 1    
    29   14   93 1    
    30   15   16 1    
    31   15   94 1    
    32   15   95 1    
    33   16   17 1    
    34   17   18 1    
    35   17   96 1    
    36   17   97 1    
    37   18   19 1    
    38   18   22 1    
    39   18   98 1    
    40   19   20 am   BACKBONE|DICT|INTERRES
    41   19   21 2    
    42   20   99 1    
    43   20  100 1    
    44   22   23 am   BACKBONE|DICT|INTERRES
    45   22  101 1    
    46   23   24 2    
    47   23   25 1    
    48   25   26 1    
    49   25   27 1    
    50   25  102 1    
    51   26  103 1    
    52   26  104 1    
    53   26  105 1    
    54   27   28 am   BACKBONE|DICT|INTERRES
    55   27  106 1    
    56   28   29 2    
    57   28   30 1    
    58   30   31 1    
    59   30   32 1    
    60   30  107 1    
    61   31  108 1    
    62   31  109 1    
    63   31  110 1    
    64   32   33 am   BACKBONE|DICT|INTERRES
    65   32  111 1    
    66   33   34 2    
    67   33   35 1    
    68   35   36 1    
    69   35   37 1    
    70   35  112 1    
    71   36  113 1    
    72   36  114 1    
    73   36  115 1    
    74   37   38 am   BACKBONE|DICT|INTERRES
    75   37  116 1    
    76   38   39 2    
    77   38   40 1    
    78   40   41 1    
    79   40   42 1    
    80   40  117 1    
    81   41  118 1    
    82   41  119 1    
    83   41  120 1    
    84   42   43 am   BACKBONE|DICT|INTERRES
    85   42  121 1    
    86   43   44 2    
    87   43   45 1    
    88   45   46 1    
    89   45   47 1    
    90   45  122 1    
    91   46  123 1    
    92   46  124 1    
    93   46  125 1    
    94   47   48 am   BACKBONE|DICT|INTERRES
    95   47  126 1    
    96   48   49 2    
    97   48   50 1    
    98   50   51 1    
    99   50   52 1    
   100   50  127 1    
   101   51  128 1    
   102   51  129 1    
   103   51  130 1    
   104   52   53 am   BACKBONE|DICT|INTERRES
   105   52  131 1    
   106   53   54 2    
   107   53   55 1    
   108   55   56 1    
   109   55   59 1    
   110   55  132 1    
   111   56   57 1    
   112   56  133 1    
   113   56  134 1    
   114   57   58 1    
   115   58  135 1    
   116   58  136 1    
   117   59   60 am   BACKBONE|DICT|INTERRES
   118   59  137 1    
   119   60   61 2    
   120   60   62 1    
   121   62   63 1    
   122   62   64 1    
   123   62  138 1    
   124   63  139 1    
   125   63  140 1    
   126   63  141 1    
   127   64   65 am   BACKBONE|DICT|INTERRES
   128   64  142 1    
   129   65   66 2    
   130   65   67 1    
   131   67   68 1    
   132   67   69 1    
   133   67  143 1    
   134   68  144 1    
   135   68  145 1    
   136   68  146 1    
   137   69   70 am   BACKBONE|DICT|INTERRES
   138   69  147 1    
   139   70   71 2    
   140   70   72 1    
   141   72   73 1    
   142   72   74 1    
   143   72  148 1    
   144   73  149 1    
   145   73  150 1    
   146   73  151 1    
   147   74   75 am   BACKBONE|DICT|INTERRES
   148   74  152 1    
   149   75   76 2    
   150   75   77 1    
   151   77   78 1    
   152   77   79 1    
   153   77  153 1    
   154   78  154 1    
   155   78  155 1    
   156   78  156 1    
   157   79   80 am   BACKBONE|DICT|INTERRES
   158   79  157 1    
   159   80   81 2    
@<TRIPOS>SUBSTRUCTURE
     1 UNK         1 GROUP             0       ****    0 ROOT    
