@<TRIPOS>MOLECULE
3R207
157   159    1
SMALL
USER_CHARGES


@<TRIPOS>ATOM
      1 CA        -49.4497  -29.4953   10.7620 C.3       0 UNK        -0.1975 
      2 C         -49.1088  -29.5543    9.2816 C.2       0 UNK         0.4852 
      3 O         -48.6975  -30.6070    8.7936 O.2       0 UNK        -0.5216 
      4 N         -49.2799  -28.4360    8.5630 N.am      1 UNK        -0.4461 
      5 CA        -49.0134  -28.3298    7.1223 C.3       1 UNK         0.0864 
      6 C6        -49.8679  -27.2025    6.4772 C.3       14 UNK        -0.0898 
      7 S7        -50.8371  -27.7437    5.0317 S.3       14 UNK        -0.2598 
      8 C8        -52.0669  -28.8835    5.7597 C.3       14 UNK         0.0286 
      9 C9        -52.7866  -28.3213    6.9811 C.ar      14 UNK        -0.0844 
     10 C10       -53.5084  -27.1263    6.9003 C.ar      14 UNK        -0.0881 
     11 C11       -54.1645  -26.6148    8.0248 C.ar      14 UNK        -0.0643 
     12 C12       -54.1192  -27.3206    9.2310 C.ar      14 UNK        -0.0930 
     13 C13       -53.4066  -28.5191    9.3213 C.ar      14 UNK        -0.0827 
     14 C14       -52.7391  -29.0109    8.1963 C.ar      14 UNK        -0.1249 
     15 C15       -53.3452  -29.2809   10.6339 C.3       14 UNK         0.0141 
     16 S16       -54.5581  -30.6333   10.6728 S.3       14 UNK        -0.2313 
     17 C17       -54.1593  -31.4149   12.2739 C.3       14 UNK        -0.0915 
     18 CA        -55.2520  -31.1655   13.3477 C.3       13 UNK         0.0968 
     19 C         -55.0015  -31.9977   14.6389 C.2       13 UNK         0.5732 
     20 N         -55.0823  -31.4182   15.8309 N.am      13 UNK        -0.7310 
     21 O         -54.7454  -33.1971   14.5623 O.2       13 UNK        -0.5035 
     22 N         -55.4344  -29.7279   13.6072 N.am      13 UNK        -0.4233 
     23 C         -56.6166  -29.1068   13.6839 C.2       13 UNK         0.4989 
     24 O         -57.7080  -29.6654   13.5581 O.2       13 UNK        -0.4996 
     25 CA        -56.5388  -27.5996   13.9620 C.3       12 UNK         0.0216 
     26 CB        -57.9048  -26.8808   13.9069 C.3       12 UNK        -0.1964 
     27 N         -55.8224  -27.3362   15.2135 N.am      12 UNK        -0.4276 
     28 C         -56.2260  -27.5571   16.4753 C.2       12 UNK         0.5020 
     29 O         -57.3235  -28.0291   16.7729 O.2       12 UNK        -0.5489 
     30 CA        -55.2383  -27.2110   17.6144 C.3       11 UNK         0.0294 
     31 CB        -54.8699  -28.4698   18.4190 C.3       11 UNK        -0.2019 
     32 N         -54.0006  -26.5720   17.1565 N.am      11 UNK        -0.4493 
     33 C         -53.9032  -25.3361   16.6487 C.2       11 UNK         0.4932 
     34 O         -54.8268  -24.5225   16.6626 O.2       11 UNK        -0.5029 
     35 CA        -52.5754  -24.9494   15.9666 C.3       10 UNK         0.0280 
     36 CB        -51.8159  -23.9272   16.8289 C.3       10 UNK        -0.1976 
     37 N         -51.6671  -26.0565   15.6279 N.am      10 UNK        -0.4242 
     38 C         -51.9411  -27.1387   14.8812 C.2       10 UNK         0.5072 
     39 O         -53.0588  -27.4160   14.4379 O.2       10 UNK        -0.5224 
     40 CA        -50.7400  -28.0377   14.5655 C.3       9 UNK         0.0343 
     41 CB        -51.1294  -29.3605   13.8847 C.3       9 UNK        -0.2003 
     42 N         -49.8382  -27.2719   13.7114 N.am      9 UNK        -0.4272 
     43 C         -48.4998  -27.2808   13.7897 C.2       9 UNK         0.4988 
     44 O         -47.8620  -28.0677   14.4895 O.2       9 UNK        -0.5108 
     45 CA        -47.7342  -26.2125   12.9791 C.3       8 UNK         0.0248 
     46 CB        -47.1652  -26.8108   11.6835 C.3       8 UNK        -0.2001 
     47 N         -48.5496  -25.0384   12.6535 N.am      8 UNK        -0.4140 
     48 C         -49.0631  -24.1942   13.5628 C.2       8 UNK         0.5028 
     49 O         -48.7788  -24.2334   14.7601 O.2       8 UNK        -0.5428 
     50 CA        -50.1124  -23.1738   13.0842 C.3       7 UNK         0.0264 
     51 CB        -49.5793  -21.7368   13.2007 C.3       7 UNK        -0.1988 
     52 N         -50.6103  -23.4127   11.7244 N.am      7 UNK        -0.4454 
     53 C         -51.3784  -24.4542   11.3612 C.2       7 UNK         0.5027 
     54 O         -51.7064  -25.3529   12.1349 O.2       7 UNK        -0.5083 
     55 CA        -51.8149  -24.5329    9.8833 C.3       6 UNK         0.0844 
     56 C56       -53.2061  -23.8752    9.6986 C.3       14 UNK        -0.0967 
     57 S57       -53.7822  -23.8734    7.9643 S.3       14 UNK        -0.2604 
     58 C58       -54.9173  -25.2969    7.9328 C.3       14 UNK         0.0134 
     59 N         -50.8062  -23.9766    8.9782 N.am      6 UNK        -0.4116 
     60 C         -49.5804  -24.4802    8.7926 C.2       5 UNK         0.5034 
     61 O         -49.1677  -25.4986    9.3554 O.2       5 UNK        -0.5045 
     62 CA        -48.6496  -23.7316    7.8222 C.3       5 UNK         0.0224 
     63 CB        -49.2596  -22.4600    7.1872 C.3       5 UNK        -0.1978 
     64 N         -47.3617  -23.4372    8.4530 N.am      5 UNK        -0.4737 
     65 C         -47.1436  -22.6834    9.5412 C.2       4 UNK         0.5027 
     66 O         -48.0415  -22.0927   10.1413 O.2       4 UNK        -0.5211 
     67 CA        -45.6963  -22.5752   10.0667 C.3       4 UNK         0.0297 
     68 CB        -45.6206  -22.9202   11.5649 C.3       4 UNK        -0.1993 
     69 N         -44.7504  -23.4223    9.3314 N.am      4 UNK        -0.4486 
     70 C         -44.1339  -23.0771    8.1921 C.2       3 UNK         0.4961 
     71 O         -44.2229  -21.9634    7.6751 O.2       3 UNK        -0.5105 
     72 CA        -43.3013  -24.1685    7.4898 C.3       3 UNK         0.0299 
     73 CB        -41.8247  -24.0643    7.9043 C.3       3 UNK        -0.1972 
     74 N         -43.7753  -25.5405    7.7227 N.am      3 UNK        -0.4305 
     75 C         -44.9847  -26.0116    7.3831 C.2       2 UNK         0.5006 
     76 O         -45.8464  -25.3198    6.8378 O.2       2 UNK        -0.5106 
     77 CA        -45.2838  -27.4839    7.7256 C.3       2 UNK         0.0296 
     78 CB        -44.6383  -27.9322    9.0528 C.3       2 UNK        -0.2002 
     79 N         -46.7286  -27.7101    7.8076 N.am      2 UNK        -0.4032 
     80 C         -47.5056  -28.1715    6.8164 C.2       1 UNK         0.5000 
     81 O         -47.0795  -28.4885    5.7039 O.2       1 UNK        -0.5238 
     82 H82       -50.0656  -30.3507   11.0370 H         1 UNK         0.0889 
     83 H83       -49.9959  -28.5869   11.0160 H         1 UNK         0.0889 
     84 H84       -48.5405  -29.5334   11.3610 H         1 UNK         0.0889 
     85 H85       -49.5855  -27.5801    9.0125 H         1 UNK         0.3028 
     86 H86       -49.3012  -29.2826    6.6736 H         1 UNK         0.0864 
     87 H87       -50.5659  -26.7710    7.1955 H         1 UNK         0.0720 
     88 H88       -49.2510  -26.3651    6.1499 H         1 UNK         0.0720 
     89 H89       -52.8082  -29.1290    4.9983 H         1 UNK         0.0814 
     90 H90       -51.5686  -29.8220    6.0064 H         1 UNK         0.0814 
     91 H91       -53.5437  -26.5835    5.9654 H         1 UNK         0.1469 
     92 H92       -54.6301  -26.9334   10.1017 H         1 UNK         0.1381 
     93 H93       -52.1870  -29.9381    8.2688 H         1 UNK         0.1206 
     94 H94       -52.3473  -29.6980   10.7593 H         1 UNK         0.0813 
     95 H95       -53.5160  -28.6082   11.4762 H         1 UNK         0.0813 
     96 H96       -54.0494  -32.4840   12.0832 H         1 UNK         0.0638 
     97 H97       -53.1861  -31.0728   12.6269 H         1 UNK         0.0638 
     98 H98       -56.1814  -31.5688   12.9419 H         1 UNK         0.0568 
     99 H99       -55.3409  -30.4491   15.9083 H         1 UNK         0.3450 
    100 H100      -54.9268  -31.9723   16.6580 H         1 UNK         0.3450 
    101 H101      -54.5912  -29.1908   13.7593 H         1 UNK         0.2987 
    102 H102      -55.9223  -27.1738   13.1682 H         1 UNK         0.0766 
    103 H103      -58.6142  -27.2868   14.6283 H         1 UNK         0.0798 
    104 H104      -57.7990  -25.8140   14.1039 H         1 UNK         0.0798 
    105 H105      -58.3563  -26.9859   12.9198 H         1 UNK         0.0798 
    106 H106      -54.8570  -27.0428   15.0865 H         1 UNK         0.3198 
    107 H107      -55.7532  -26.5159   18.2811 H         1 UNK         0.0843 
    108 H108      -55.7622  -28.9656   18.8042 H         1 UNK         0.0831 
    109 H109      -54.2465  -28.2225   19.2784 H         1 UNK         0.0831 
    110 H110      -54.3302  -29.1963   17.8107 H         1 UNK         0.0831 
    111 H111      -53.1839  -27.1626   17.1012 H         1 UNK         0.3133 
    112 H112      -52.8413  -24.4670   15.0239 H         1 UNK         0.0566 
    113 H113      -50.9360  -23.5420   16.3143 H         1 UNK         0.0814 
    114 H114      -52.4459  -23.0691   17.0679 H         1 UNK         0.0814 
    115 H115      -51.4880  -24.3630   17.7735 H         1 UNK         0.0814 
    116 H116      -50.7075  -25.9307   15.9203 H         1 UNK         0.3091 
    117 H117      -50.2524  -28.2697   15.5150 H         1 UNK         0.0702 
    118 H118      -50.2558  -29.9891   13.7127 H         1 UNK         0.0785 
    119 H119      -51.6109  -29.1823   12.9260 H         1 UNK         0.0785 
    120 H120      -51.8238  -29.9297   14.5041 H         1 UNK         0.0785 
    121 H121      -50.2944  -26.5808   13.1231 H         1 UNK         0.2998 
    122 H122      -46.8978  -25.8758   13.5952 H         1 UNK         0.0697 
    123 H123      -47.9573  -27.1364   11.0133 H         1 UNK         0.0825 
    124 H124      -46.5348  -27.6757   11.8945 H         1 UNK         0.0825 
    125 H125      -46.5567  -26.0874   11.1436 H         1 UNK         0.0825 
    126 H126      -48.8322  -24.9341   11.6878 H         1 UNK         0.3029 
    127 H127      -50.9649  -23.2659   13.7601 H         1 UNK         0.0897 
    128 H128      -50.3322  -21.0064   12.9044 H         1 UNK         0.0792 
    129 H129      -49.2979  -21.5097   14.2299 H         1 UNK         0.0792 
    130 H130      -48.6953  -21.5792   12.5841 H         1 UNK         0.0792 
    131 H131      -50.3171  -22.7510   11.0170 H         1 UNK         0.3086 
    132 H132      -51.9066  -25.5927    9.6383 H         1 UNK         0.0583 
    133 H133      -53.9490  -24.3742   10.3241 H         1 UNK         0.1020 
    134 H134      -53.1845  -22.8369   10.0361 H         1 UNK         0.1020 
    135 H135      -55.6475  -25.2050    8.7385 H         1 UNK         0.0694 
    136 H136      -55.4868  -25.2712    7.0026 H         1 UNK         0.0694 
    137 H137      -51.0775  -23.1536    8.4606 H         1 UNK         0.2989 
    138 H138      -48.4321  -24.4271    7.0124 H         1 UNK         0.1055 
    139 H139      -48.5552  -21.9978    6.4953 H         1 UNK         0.0806 
    140 H140      -49.5247  -21.7081    7.9314 H         1 UNK         0.0806 
    141 H141      -50.1564  -22.6943    6.6118 H         1 UNK         0.0806 
    142 H142      -46.5735  -23.9185    8.0314 H         1 UNK         0.3061 
    143 H143      -45.3997  -21.5304    9.9528 H         1 UNK         0.0734 
    144 H144      -46.2687  -22.2681   12.1517 H         1 UNK         0.0832 
    145 H145      -45.9291  -23.9450   11.7642 H         1 UNK         0.0832 
    146 H146      -44.6087  -22.7937   11.9498 H         1 UNK         0.0832 
    147 H147      -44.6101  -24.3580    9.6826 H         1 UNK         0.3156 
    148 H148      -43.3658  -23.9813    6.4158 H         1 UNK         0.0589 
    149 H149      -41.6864  -24.2733    8.9659 H         1 UNK         0.0808 
    150 H150      -41.2025  -24.7592    7.3399 H         1 UNK         0.0808 
    151 H151      -41.4366  -23.0618    7.7171 H         1 UNK         0.0808 
    152 H152      -43.1216  -26.1729    8.1620 H         1 UNK         0.3098 
    153 H153      -44.8640  -28.0939    6.9232 H         1 UNK         0.0720 
    154 H154      -44.9738  -28.9302    9.3365 H         1 UNK         0.0791 
    155 H155      -44.8777  -27.2571    9.8740 H         1 UNK         0.0791 
    156 H156      -43.5519  -27.9810    8.9722 H         1 UNK         0.0791 
    157 H157      -47.1842  -27.4204    8.6600 H         1 UNK         0.3028 
@<TRIPOS>BOND
     1    1    2 1    
     2    1   82 1    
     3    1   83 1    
     4    1   84 1    
     5    2    3 2    
     6    2    4 am   BACKBONE|DICT|INTERRES
     7    4    5 1    
     8    4   85 1    
     9    5    6 1    
    10    5   80 1    
    11    5   86 1    
    12    6    7 1    
    13    6   87 1    
    14    6   88 1    
    15    7    8 1    
    16    8    9 1    
    17    8   89 1    
    18    8   90 1    
    19    9   10 ar   
    20    9   14 ar   
    21   10   11 ar   
    22   10   91 1    
    23   11   12 ar   
    24   11   58 1    
    25   12   13 ar   
    26   12   92 1    
    27   13   14 ar   
    28   13   15 1    
    29   14   93 1    
    30   15   16 1    
    31   15   94 1    
    32   15   95 1    
    33   16   17 1    
    34   17   18 1    
    35   17   96 1    
    36   17   97 1    
    37   18   19 1    
    38   18   22 1    
    39   18   98 1    
    40   19   20 am   BACKBONE|DICT|INTERRES
    41   19   21 2    
    42   20   99 1    
    43   20  100 1    
    44   22   23 am   BACKBONE|DICT|INTERRES
    45   22  101 1    
    46   23   24 2    
    47   23   25 1    
    48   25   26 1    
    49   25   27 1    
    50   25  102 1    
    51   26  103 1    
    52   26  104 1    
    53   26  105 1    
    54   27   28 am   BACKBONE|DICT|INTERRES
    55   27  106 1    
    56   28   29 2    
    57   28   30 1    
    58   30   31 1    
    59   30   32 1    
    60   30  107 1    
    61   31  108 1    
    62   31  109 1    
    63   31  110 1    
    64   32   33 am   BACKBONE|DICT|INTERRES
    65   32  111 1    
    66   33   34 2    
    67   33   35 1    
    68   35   36 1    
    69   35   37 1    
    70   35  112 1    
    71   36  113 1    
    72   36  114 1    
    73   36  115 1    
    74   37   38 am   BACKBONE|DICT|INTERRES
    75   37  116 1    
    76   38   39 2    
    77   38   40 1    
    78   40   41 1    
    79   40   42 1    
    80   40  117 1    
    81   41  118 1    
    82   41  119 1    
    83   41  120 1    
    84   42   43 am   BACKBONE|DICT|INTERRES
    85   42  121 1    
    86   43   44 2    
    87   43   45 1    
    88   45   46 1    
    89   45   47 1    
    90   45  122 1    
    91   46  123 1    
    92   46  124 1    
    93   46  125 1    
    94   47   48 am   BACKBONE|DICT|INTERRES
    95   47  126 1    
    96   48   49 2    
    97   48   50 1    
    98   50   51 1    
    99   50   52 1    
   100   50  127 1    
   101   51  128 1    
   102   51  129 1    
   103   51  130 1    
   104   52   53 am   BACKBONE|DICT|INTERRES
   105   52  131 1    
   106   53   54 2    
   107   53   55 1    
   108   55   56 1    
   109   55   59 1    
   110   55  132 1    
   111   56   57 1    
   112   56  133 1    
   113   56  134 1    
   114   57   58 1    
   115   58  135 1    
   116   58  136 1    
   117   59   60 am   BACKBONE|DICT|INTERRES
   118   59  137 1    
   119   60   61 2    
   120   60   62 1    
   121   62   63 1    
   122   62   64 1    
   123   62  138 1    
   124   63  139 1    
   125   63  140 1    
   126   63  141 1    
   127   64   65 am   BACKBONE|DICT|INTERRES
   128   64  142 1    
   129   65   66 2    
   130   65   67 1    
   131   67   68 1    
   132   67   69 1    
   133   67  143 1    
   134   68  144 1    
   135   68  145 1    
   136   68  146 1    
   137   69   70 am   BACKBONE|DICT|INTERRES
   138   69  147 1    
   139   70   71 2    
   140   70   72 1    
   141   72   73 1    
   142   72   74 1    
   143   72  148 1    
   144   73  149 1    
   145   73  150 1    
   146   73  151 1    
   147   74   75 am   BACKBONE|DICT|INTERRES
   148   74  152 1    
   149   75   76 2    
   150   75   77 1    
   151   77   78 1    
   152   77   79 1    
   153   77  153 1    
   154   78  154 1    
   155   78  155 1    
   156   78  156 1    
   157   79   80 am   BACKBONE|DICT|INTERRES
   158   79  157 1    
   159   80   81 2    
@<TRIPOS>SUBSTRUCTURE
     1 UNK         1 GROUP             0       ****    0 ROOT    
