@<TRIPOS>MOLECULE
3R207
157   159    1
SMALL
USER_CHARGES


@<TRIPOS>ATOM
      1 CA        -47.1341  -31.8456    7.6271 C.3       0 UNK        -0.1975 
      2 C         -47.5025  -30.7002    6.6954 C.2       0 UNK         0.4852 
      3 O         -46.6999  -30.3264    5.8385 O.2       0 UNK        -0.5216 
      4 N         -48.7138  -30.1515    6.8514 N.am      1 UNK        -0.4461 
      5 CA        -49.2157  -28.9970    6.0995 C.3       1 UNK         0.0864 
      6 C6        -50.7449  -28.8197    6.2660 C.3       14 UNK        -0.0898 
      7 S7        -51.7163  -30.2298    5.6337 S.3       14 UNK        -0.2598 
      8 C8        -53.2276  -29.3990    5.0292 C.3       14 UNK         0.0286 
      9 C9        -54.1127  -28.9360    6.1790 C.ar      14 UNK        -0.0844 
     10 C10       -53.8262  -27.7437    6.8475 C.ar      14 UNK        -0.0881 
     11 C11       -54.5619  -27.3628    7.9702 C.ar      14 UNK        -0.0643 
     12 C12       -55.6541  -28.1349    8.3718 C.ar      14 UNK        -0.0930 
     13 C13       -55.9629  -29.3294    7.7075 C.ar      14 UNK        -0.0827 
     14 C14       -55.1889  -29.7196    6.6083 C.ar      14 UNK        -0.1249 
     15 C15       -57.1152  -30.2172    8.1715 C.3       14 UNK         0.0141 
     16 S16       -57.2577  -30.3481    9.9871 S.3       14 UNK        -0.2313 
     17 C17       -55.9377  -31.5346   10.4390 C.3       14 UNK        -0.0915 
     18 CA        -54.5046  -30.9477   10.6642 C.3       13 UNK         0.0968 
     19 C         -53.5447  -31.1295    9.4550 C.2       13 UNK         0.5732 
     20 N         -52.6916  -30.1670    9.1291 N.am      13 UNK        -0.7310 
     21 O         -53.5440  -32.1798    8.8176 O.2       13 UNK        -0.5035 
     22 N         -54.5196  -29.5846   11.2166 N.am      13 UNK        -0.4233 
     23 C         -54.6316  -29.2805   12.5111 C.2       13 UNK         0.4989 
     24 O         -54.6322  -30.1096   13.4260 O.2       13 UNK        -0.4996 
     25 CA        -54.8232  -27.7966   12.8409 C.3       12 UNK         0.0216 
     26 CB        -56.2953  -27.3764   12.6707 C.3       12 UNK        -0.1964 
     27 N         -54.3871  -27.5742   14.2141 N.am      12 UNK        -0.4276 
     28 C         -53.9988  -26.4061   14.7324 C.2       12 UNK         0.5020 
     29 O         -54.0603  -25.3364   14.1211 O.2       12 UNK        -0.5489 
     30 CA        -53.4481  -26.4350   16.1675 C.3       11 UNK         0.0294 
     31 CB        -52.6799  -27.7319   16.5027 C.3       11 UNK        -0.2019 
     32 N         -52.5589  -25.2941   16.3645 N.am      11 UNK        -0.4493 
     33 C         -52.4220  -24.5947   17.4966 C.2       11 UNK         0.4932 
     34 O         -53.0861  -24.7973   18.5151 O.2       11 UNK        -0.5029 
     35 CA        -51.3288  -23.5080   17.4815 C.3       10 UNK         0.0280 
     36 CB        -51.0527  -22.8904   18.8688 C.3       10 UNK        -0.1976 
     37 N         -50.0962  -24.0052   16.8605 N.am      10 UNK        -0.4242 
     38 C         -49.3256  -25.0280   17.2659 C.2       10 UNK         0.5072 
     39 O         -49.4569  -25.6114   18.3427 O.2       10 UNK        -0.5224 
     40 CA        -48.2414  -25.5154   16.2869 C.3       9 UNK         0.0343 
     41 CB        -48.6681  -26.8467   15.6439 C.3       9 UNK        -0.2003 
     42 N         -47.9586  -24.5476   15.2251 N.am      9 UNK        -0.4272 
     43 C         -47.1618  -23.4786   15.3594 C.2       9 UNK         0.4988 
     44 O         -46.5142  -23.2286   16.3764 O.2       9 UNK        -0.5108 
     45 CA        -47.0853  -22.5162   14.1624 C.3       8 UNK         0.0248 
     46 CB        -45.9314  -22.9139   13.2311 C.3       8 UNK        -0.2001 
     47 N         -48.3379  -22.4639   13.4015 N.am      8 UNK        -0.4140 
     48 C         -49.4412  -21.8304   13.8231 C.2       8 UNK         0.5028 
     49 O         -49.5086  -21.2154   14.8875 O.2       8 UNK        -0.5428 
     50 CA        -50.6927  -21.9069   12.9307 C.3       7 UNK         0.0264 
     51 CB        -50.6728  -20.7812   11.8841 C.3       7 UNK        -0.1988 
     52 N         -50.9012  -23.1902   12.2527 N.am      7 UNK        -0.4454 
     53 C         -51.0143  -24.3838   12.8532 C.2       7 UNK         0.5027 
     54 O         -50.8548  -24.5542   14.0632 O.2       7 UNK        -0.5083 
     55 CA        -51.3741  -25.5907   11.9736 C.3       6 UNK         0.0844 
     56 C56       -52.1369  -25.2319   10.6665 C.3       14 UNK        -0.0967 
     57 S57       -52.6566  -26.7385    9.7847 S.3       14 UNK        -0.2604 
     58 C58       -54.0873  -26.1884    8.8081 C.3       14 UNK         0.0134 
     59 N         -50.1598  -26.3620   11.7119 N.am      6 UNK        -0.4116 
     60 C         -50.0272  -27.6740   11.9490 C.2       5 UNK         0.5034 
     61 O         -50.8420  -28.3410   12.5889 O.2       5 UNK        -0.5045 
     62 CA        -48.8184  -28.3966   11.3265 C.3       5 UNK         0.0224 
     63 CB        -49.2922  -29.4090   10.2705 C.3       5 UNK        -0.1978 
     64 N         -47.8519  -27.4925   10.6973 N.am      5 UNK        -0.4737 
     65 C         -46.8636  -26.8827   11.3613 C.2       4 UNK         0.5027 
     66 O         -46.6599  -27.0159   12.5671 O.2       4 UNK        -0.5211 
     67 CA        -45.9598  -25.9498   10.5426 C.3       4 UNK         0.0297 
     68 CB        -44.9668  -26.7673    9.6997 C.3       4 UNK        -0.1993 
     69 N         -46.6805  -25.0165    9.6721 N.am      4 UNK        -0.4486 
     70 C         -47.6627  -24.1716   10.0247 C.2       3 UNK         0.4961 
     71 O         -48.1769  -24.1349   11.1412 O.2       3 UNK        -0.5105 
     72 CA        -48.1571  -23.1866    8.9510 C.3       3 UNK         0.0299 
     73 CB        -47.4645  -21.8256    9.1236 C.3       3 UNK        -0.1972 
     74 N         -47.9164  -23.6944    7.5988 N.am      3 UNK        -0.4305 
     75 C         -48.6779  -24.6287    7.0154 C.2       2 UNK         0.5006 
     76 O         -49.7851  -24.9629    7.4436 O.2       2 UNK        -0.5106 
     77 CA        -48.1014  -25.3147    5.7571 C.3       2 UNK         0.0296 
     78 CB        -46.5564  -25.2886    5.6849 C.3       2 UNK        -0.2002 
     79 N         -48.5840  -26.6933    5.6068 N.am      2 UNK        -0.4032 
     80 C         -48.4944  -27.6916    6.5024 C.2       1 UNK         0.5000 
     81 O         -47.9332  -27.5985    7.6013 O.2       1 UNK        -0.5238 
     82 H82       -46.2853  -31.5629    8.2493 H         1 UNK         0.0889 
     83 H83       -46.8556  -32.7260    7.0486 H         1 UNK         0.0889 
     84 H84       -47.9598  -32.1197    8.2836 H         1 UNK         0.0889 
     85 H85       -49.3308  -30.5054    7.5661 H         1 UNK         0.3028 
     86 H86       -49.0038  -29.1770    5.0430 H         1 UNK         0.0864 
     87 H87       -51.0065  -28.6491    7.3117 H         1 UNK         0.0720 
     88 H88       -51.0654  -27.9295    5.7237 H         1 UNK         0.0720 
     89 H89       -53.7773  -30.0953    4.3942 H         1 UNK         0.0814 
     90 H90       -52.9624  -28.5550    4.3908 H         1 UNK         0.0814 
     91 H91       -52.9845  -27.1386    6.5446 H         1 UNK         0.1469 
     92 H92       -56.2335  -27.8304    9.2316 H         1 UNK         0.1381 
     93 H93       -55.4067  -30.6495    6.1010 H         1 UNK         0.1206 
     94 H94       -58.0442  -29.7999    7.7815 H         1 UNK         0.0813 
     95 H95       -57.0277  -31.2204    7.7515 H         1 UNK         0.0813 
     96 H96       -56.2633  -31.9867   11.3768 H         1 UNK         0.0638 
     97 H97       -55.9397  -32.3578    9.7229 H         1 UNK         0.0638 
     98 H98       -54.0309  -31.5846   11.4135 H         1 UNK         0.0568 
     99 H99       -52.1275  -30.3033    8.3068 H         1 UNK         0.3450 
    100 H100      -52.6537  -29.2955    9.6327 H         1 UNK         0.3450 
    101 H101      -54.5276  -28.8471   10.5271 H         1 UNK         0.2987 
    102 H102      -54.1970  -27.2067   12.1717 H         1 UNK         0.0766 
    103 H103      -56.4327  -26.3145   12.8749 H         1 UNK         0.0798 
    104 H104      -56.9513  -27.9342   13.3401 H         1 UNK         0.0798 
    105 H105      -56.6413  -27.5553   11.6524 H         1 UNK         0.0798 
    106 H106      -54.2828  -28.4275   14.7504 H         1 UNK         0.3198 
    107 H107      -54.3077  -26.3473   16.8353 H         1 UNK         0.0843 
    108 H108      -51.8852  -27.9256   15.7804 H         1 UNK         0.0831 
    109 H109      -53.3396  -28.6000   16.5150 H         1 UNK         0.0831 
    110 H110      -52.2201  -27.6743   17.4898 H         1 UNK         0.0831 
    111 H111      -52.0196  -25.0186   15.5457 H         1 UNK         0.3133 
    112 H112      -51.6953  -22.7114   16.8322 H         1 UNK         0.0566 
    113 H113      -50.2757  -22.1280   18.8148 H         1 UNK         0.0814 
    114 H114      -51.9489  -22.4128   19.2664 H         1 UNK         0.0814 
    115 H115      -50.7377  -23.6407   19.5944 H         1 UNK         0.0814 
    116 H116      -49.9146  -23.6476   15.9316 H         1 UNK         0.3091 
    117 H117      -47.3295  -25.6898   16.8620 H         1 UNK         0.0702 
    118 H118      -48.8654  -27.6032   16.4045 H         1 UNK         0.0785 
    119 H119      -49.5771  -26.7387   15.0509 H         1 UNK         0.0785 
    120 H120      -47.8882  -27.2404   14.9923 H         1 UNK         0.0785 
    121 H121      -48.4671  -24.6671   14.3596 H         1 UNK         0.2998 
    122 H122      -46.8778  -21.5160   14.5493 H         1 UNK         0.0697 
    123 H123      -46.0472  -23.9377   12.8786 H         1 UNK         0.0825 
    124 H124      -44.9739  -22.8556   13.7502 H         1 UNK         0.0825 
    125 H125      -45.8725  -22.2599   12.3610 H         1 UNK         0.0825 
    126 H126      -48.3686  -22.9906   12.5294 H         1 UNK         0.3029 
    127 H127      -51.5556  -21.7488   13.5814 H         1 UNK         0.0897 
    128 H128      -51.6108  -20.7357   11.3305 H         1 UNK         0.0792 
    129 H129      -49.8635  -20.9122   11.1651 H         1 UNK         0.0792 
    130 H130      -50.5330  -19.8086   12.3585 H         1 UNK         0.0792 
    131 H131      -51.0128  -23.1469   11.2514 H         1 UNK         0.3086 
    132 H132      -52.0533  -26.1861   12.5826 H         1 UNK         0.0583 
    133 H133      -53.0228  -24.6347   10.8926 H         1 UNK         0.1020 
    134 H134      -51.5153  -24.6463    9.9864 H         1 UNK         0.1020 
    135 H135      -54.8770  -25.8317    9.4712 H         1 UNK         0.0694 
    136 H136      -53.8012  -25.3545    8.1653 H         1 UNK         0.0694 
    137 H137      -49.4015  -25.8652   11.2607 H         1 UNK         0.2989 
    138 H138      -48.3268  -28.9493   12.1306 H         1 UNK         0.1055 
    139 H139      -49.9846  -30.1345   10.7003 H         1 UNK         0.0806 
    140 H140      -48.4529  -29.9671    9.8564 H         1 UNK         0.0806 
    141 H141      -49.8082  -28.9120    9.4486 H         1 UNK         0.0806 
    142 H142      -47.9328  -27.3512    9.6937 H         1 UNK         0.3061 
    143 H143      -45.3792  -25.3528   11.2463 H         1 UNK         0.0734 
    144 H144      -44.2368  -26.1240    9.2081 H         1 UNK         0.0832 
    145 H145      -44.4091  -27.4673   10.3236 H         1 UNK         0.0832 
    146 H146      -45.4731  -27.3510    8.9294 H         1 UNK         0.0832 
    147 H147      -46.3663  -24.9851    8.7153 H         1 UNK         0.3156 
    148 H148      -49.2296  -23.0423    9.0982 H         1 UNK         0.0589 
    149 H149      -46.3861  -21.8962    8.9760 H         1 UNK         0.0808 
    150 H150      -47.8532  -21.0913    8.4178 H         1 UNK         0.0808 
    151 H151      -47.6280  -21.4277   10.1261 H         1 UNK         0.0808 
    152 H152      -47.0516  -23.4238    7.1525 H         1 UNK         0.3098 
    153 H153      -48.4881  -24.7575    4.9026 H         1 UNK         0.0720 
    154 H154      -46.1997  -25.8180    4.8012 H         1 UNK         0.0791 
    155 H155      -46.0993  -25.7634    6.5540 H         1 UNK         0.0791 
    156 H156      -46.1703  -24.2714    5.6135 H         1 UNK         0.0791 
    157 H157      -49.0997  -26.8705    4.7563 H         1 UNK         0.3028 
@<TRIPOS>BOND
     1    1    2 1    
     2    1   82 1    
     3    1   83 1    
     4    1   84 1    
     5    2    3 2    
     6    2    4 am   BACKBONE|DICT|INTERRES
     7    4    5 1    
     8    4   85 1    
     9    5    6 1    
    10    5   80 1    
    11    5   86 1    
    12    6    7 1    
    13    6   87 1    
    14    6   88 1    
    15    7    8 1    
    16    8    9 1    
    17    8   89 1    
    18    8   90 1    
    19    9   10 ar   
    20    9   14 ar   
    21   10   11 ar   
    22   10   91 1    
    23   11   12 ar   
    24   11   58 1    
    25   12   13 ar   
    26   12   92 1    
    27   13   14 ar   
    28   13   15 1    
    29   14   93 1    
    30   15   16 1    
    31   15   94 1    
    32   15   95 1    
    33   16   17 1    
    34   17   18 1    
    35   17   96 1    
    36   17   97 1    
    37   18   19 1    
    38   18   22 1    
    39   18   98 1    
    40   19   20 am   BACKBONE|DICT|INTERRES
    41   19   21 2    
    42   20   99 1    
    43   20  100 1    
    44   22   23 am   BACKBONE|DICT|INTERRES
    45   22  101 1    
    46   23   24 2    
    47   23   25 1    
    48   25   26 1    
    49   25   27 1    
    50   25  102 1    
    51   26  103 1    
    52   26  104 1    
    53   26  105 1    
    54   27   28 am   BACKBONE|DICT|INTERRES
    55   27  106 1    
    56   28   29 2    
    57   28   30 1    
    58   30   31 1    
    59   30   32 1    
    60   30  107 1    
    61   31  108 1    
    62   31  109 1    
    63   31  110 1    
    64   32   33 am   BACKBONE|DICT|INTERRES
    65   32  111 1    
    66   33   34 2    
    67   33   35 1    
    68   35   36 1    
    69   35   37 1    
    70   35  112 1    
    71   36  113 1    
    72   36  114 1    
    73   36  115 1    
    74   37   38 am   BACKBONE|DICT|INTERRES
    75   37  116 1    
    76   38   39 2    
    77   38   40 1    
    78   40   41 1    
    79   40   42 1    
    80   40  117 1    
    81   41  118 1    
    82   41  119 1    
    83   41  120 1    
    84   42   43 am   BACKBONE|DICT|INTERRES
    85   42  121 1    
    86   43   44 2    
    87   43   45 1    
    88   45   46 1    
    89   45   47 1    
    90   45  122 1    
    91   46  123 1    
    92   46  124 1    
    93   46  125 1    
    94   47   48 am   BACKBONE|DICT|INTERRES
    95   47  126 1    
    96   48   49 2    
    97   48   50 1    
    98   50   51 1    
    99   50   52 1    
   100   50  127 1    
   101   51  128 1    
   102   51  129 1    
   103   51  130 1    
   104   52   53 am   BACKBONE|DICT|INTERRES
   105   52  131 1    
   106   53   54 2    
   107   53   55 1    
   108   55   56 1    
   109   55   59 1    
   110   55  132 1    
   111   56   57 1    
   112   56  133 1    
   113   56  134 1    
   114   57   58 1    
   115   58  135 1    
   116   58  136 1    
   117   59   60 am   BACKBONE|DICT|INTERRES
   118   59  137 1    
   119   60   61 2    
   120   60   62 1    
   121   62   63 1    
   122   62   64 1    
   123   62  138 1    
   124   63  139 1    
   125   63  140 1    
   126   63  141 1    
   127   64   65 am   BACKBONE|DICT|INTERRES
   128   64  142 1    
   129   65   66 2    
   130   65   67 1    
   131   67   68 1    
   132   67   69 1    
   133   67  143 1    
   134   68  144 1    
   135   68  145 1    
   136   68  146 1    
   137   69   70 am   BACKBONE|DICT|INTERRES
   138   69  147 1    
   139   70   71 2    
   140   70   72 1    
   141   72   73 1    
   142   72   74 1    
   143   72  148 1    
   144   73  149 1    
   145   73  150 1    
   146   73  151 1    
   147   74   75 am   BACKBONE|DICT|INTERRES
   148   74  152 1    
   149   75   76 2    
   150   75   77 1    
   151   77   78 1    
   152   77   79 1    
   153   77  153 1    
   154   78  154 1    
   155   78  155 1    
   156   78  156 1    
   157   79   80 am   BACKBONE|DICT|INTERRES
   158   79  157 1    
   159   80   81 2    
@<TRIPOS>SUBSTRUCTURE
     1 UNK         1 GROUP             0       ****    0 ROOT    
