@<TRIPOS>MOLECULE
3R207
157   159    1
SMALL
USER_CHARGES


@<TRIPOS>ATOM
      1 CA        -51.2216  -28.5758    9.8749 C.3       0 UNK        -0.1975 
      2 C         -50.4942  -29.3392    8.7812 C.2       0 UNK         0.4852 
      3 O         -49.6053  -30.1364    9.0801 O.2       0 UNK        -0.5216 
      4 N         -50.8547  -29.0952    7.5125 N.am      1 UNK        -0.4461 
      5 CA        -50.2197  -29.7147    6.3388 C.3       1 UNK         0.0864 
      6 C6        -51.1597  -29.7280    5.1029 C.3       14 UNK        -0.0898 
      7 S7        -51.4899  -28.0904    4.3566 S.3       14 UNK        -0.2598 
      8 C8        -53.2819  -27.8946    4.6159 C.3       14 UNK         0.0286 
      9 C9        -53.6069  -27.6328    6.0771 C.ar      14 UNK        -0.0844 
     10 C10       -53.2075  -26.4347    6.6727 C.ar      14 UNK        -0.0881 
     11 C11       -53.4507  -26.1956    8.0279 C.ar      14 UNK        -0.0643 
     12 C12       -54.1422  -27.1525    8.7785 C.ar      14 UNK        -0.0930 
     13 C13       -54.5677  -28.3471    8.1861 C.ar      14 UNK        -0.0827 
     14 C14       -54.2927  -28.5839    6.8362 C.ar      14 UNK        -0.1249 
     15 C15       -55.3050  -29.3937    9.0064 C.3       14 UNK         0.0141 
     16 S16       -57.0337  -28.9110    9.2914 S.3       14 UNK        -0.2313 
     17 C17       -57.7626  -30.4746    9.8813 C.3       14 UNK        -0.0915 
     18 CA        -57.7407  -30.6033   11.4273 C.3       13 UNK         0.0968 
     19 C         -58.7365  -31.6944   11.8982 C.2       13 UNK         0.5732 
     20 N         -59.9852  -31.3278   12.1506 N.am      13 UNK        -0.7310 
     21 O         -58.3979  -32.8726   12.0063 O.2       13 UNK        -0.5035 
     22 N         -56.3928  -30.9209   11.9177 N.am      13 UNK        -0.4233 
     23 C         -55.7290  -30.2394   12.8549 C.2       13 UNK         0.4989 
     24 O         -56.1182  -29.1778   13.3491 O.2       13 UNK        -0.4996 
     25 CA        -54.3946  -30.8512   13.3051 C.3       12 UNK         0.0216 
     26 CB        -53.2859  -30.5870   12.2721 C.3       12 UNK        -0.1964 
     27 N         -53.9951  -30.2547   14.5756 N.am      12 UNK        -0.4276 
     28 C         -53.6156  -30.9090   15.6752 C.2       12 UNK         0.5020 
     29 O         -53.5081  -32.1353   15.7436 O.2       12 UNK        -0.5489 
     30 CA        -53.2738  -30.0297   16.8941 C.3       11 UNK         0.0294 
     31 CB        -53.1188  -30.8498   18.1889 C.3       11 UNK        -0.2019 
     32 N         -52.0497  -29.2544   16.6742 N.am      11 UNK        -0.4493 
     33 C         -51.9472  -28.1652   15.9021 C.2       11 UNK         0.4932 
     34 O         -52.8892  -27.6823   15.2673 O.2       11 UNK        -0.5029 
     35 CA        -50.5430  -27.5430   15.7969 C.3       10 UNK         0.0280 
     36 CB        -49.7453  -28.2257   14.6736 C.3       10 UNK        -0.1976 
     37 N         -50.5783  -26.1008   15.5433 N.am      10 UNK        -0.4242 
     38 C         -51.1299  -25.1836   16.3517 C.2       10 UNK         0.5072 
     39 O         -51.6221  -25.4411   17.4532 O.2       10 UNK        -0.5224 
     40 CA        -51.0979  -23.7325   15.8371 C.3       9 UNK         0.0343 
     41 CB        -51.7171  -22.7163   16.8208 C.3       9 UNK        -0.2003 
     42 N         -49.7486  -23.3235   15.4376 N.am      9 UNK        -0.4272 
     43 C         -48.6496  -23.2574   16.2060 C.2       9 UNK         0.4988 
     44 O         -48.6396  -23.4840   17.4167 O.2       9 UNK        -0.5108 
     45 CA        -47.3200  -22.8955   15.5156 C.3       8 UNK         0.0248 
     46 CB        -46.4006  -24.1272   15.4666 C.3       8 UNK        -0.2001 
     47 N         -47.4790  -22.3603   14.1594 N.am      8 UNK        -0.4140 
     48 C         -47.9694  -21.1466   13.8691 C.2       8 UNK         0.5028 
     49 O         -48.2727  -20.3093   14.7198 O.2       8 UNK        -0.5428 
     50 CA        -48.1955  -20.8233   12.3822 C.3       7 UNK         0.0264 
     51 CB        -46.8943  -20.3255   11.7331 C.3       7 UNK        -0.1988 
     52 N         -48.7292  -21.9543   11.6149 N.am      7 UNK        -0.4454 
     53 C         -49.9251  -22.5295   11.8210 C.2       7 UNK         0.5027 
     54 O         -50.7230  -22.1557   12.6806 O.2       7 UNK        -0.5083 
     55 CA        -50.2704  -23.7602   10.9583 C.3       6 UNK         0.0844 
     56 C56       -50.7559  -23.3353    9.5510 C.3       14 UNK        -0.0967 
     57 S57       -51.1394  -24.7668    8.4919 S.3       14 UNK        -0.2604 
     58 C58       -52.9440  -24.9142    8.6762 C.3       14 UNK         0.0134 
     59 N         -49.1544  -24.7091   10.9227 N.am      6 UNK        -0.4116 
     60 C         -48.6985  -25.3851   11.9863 C.2       5 UNK         0.5034 
     61 O         -49.2155  -25.3429   13.1037 O.2       5 UNK        -0.5045 
     62 CA        -47.4203  -26.2107   11.7792 C.3       5 UNK         0.0224 
     63 CB        -47.7481  -27.6123   11.2400 C.3       5 UNK        -0.1978 
     64 N         -46.4741  -25.5391   10.8835 N.am      5 UNK        -0.4737 
     65 C         -45.7860  -24.4359   11.2113 C.2       4 UNK         0.5027 
     66 O         -45.8589  -23.8901   12.3104 O.2       4 UNK        -0.5211 
     67 CA        -44.8988  -23.8109   10.1219 C.3       4 UNK         0.0297 
     68 CB        -43.5324  -24.5119   10.0716 C.3       4 UNK        -0.1993 
     69 N         -45.5170  -23.8413    8.7953 N.am      4 UNK        -0.4486 
     70 C         -46.6418  -23.1914    8.4645 C.2       3 UNK         0.4961 
     71 O         -47.2620  -22.4569    9.2322 O.2       3 UNK        -0.5105 
     72 CA        -47.1989  -23.4451    7.0536 C.3       3 UNK         0.0299 
     73 CB        -46.5939  -22.4516    6.0495 C.3       3 UNK        -0.1972 
     74 N         -47.0028  -24.8182    6.5712 N.am      3 UNK        -0.4305 
     75 C         -47.4682  -25.9123    7.1882 C.2       2 UNK         0.5006 
     76 O         -48.0422  -25.8972    8.2799 O.2       2 UNK        -0.5106 
     77 CA        -47.2323  -27.2555    6.4983 C.3       2 UNK         0.0296 
     78 CB        -46.0259  -27.9826    7.1214 C.3       2 UNK        -0.2002 
     79 N         -48.4525  -28.0285    6.6792 N.am      2 UNK        -0.4032 
     80 C         -48.8231  -29.1281    6.0135 C.2       1 UNK         0.5000 
     81 O         -48.1200  -29.6776    5.1624 O.2       1 UNK        -0.5238 
     82 H82       -52.2493  -28.9242    9.9519 H         1 UNK         0.0889 
     83 H83       -51.2275  -27.5071    9.6653 H         1 UNK         0.0889 
     84 H84       -50.7391  -28.7261   10.8403 H         1 UNK         0.0889 
     85 H85       -51.6014  -28.4404    7.3132 H         1 UNK         0.3028 
     86 H86       -50.0381  -30.7614    6.5930 H         1 UNK         0.0864 
     87 H87       -50.7310  -30.3606    4.3235 H         1 UNK         0.0720 
     88 H88       -52.1040  -30.2053    5.3685 H         1 UNK         0.0720 
     89 H89       -53.6358  -27.0548    4.0163 H         1 UNK         0.0814 
     90 H90       -53.8056  -28.7770    4.2445 H         1 UNK         0.0814 
     91 H91       -52.6716  -25.6993    6.0875 H         1 UNK         0.1469 
     92 H92       -54.3433  -26.9757    9.8264 H         1 UNK         0.1381 
     93 H93       -54.6091  -29.5111    6.3776 H         1 UNK         0.1206 
     94 H94       -55.2695  -30.3622    8.5054 H         1 UNK         0.0813 
     95 H95       -54.8061  -29.5209    9.9660 H         1 UNK         0.0813 
     96 H96       -58.7903  -30.4852    9.5126 H         1 UNK         0.0638 
     97 H97       -57.2686  -31.3243    9.4068 H         1 UNK         0.0638 
     98 H98       -58.0783  -29.6563   11.8536 H         1 UNK         0.0568 
     99 H99       -60.6500  -32.0259   12.4457 H         1 UNK         0.3450 
    100 H100      -60.2775  -30.3678   12.0527 H         1 UNK         0.3450 
    101 H101      -56.0291  -31.8120   11.6112 H         1 UNK         0.2987 
    102 H102      -54.5345  -31.9283   13.4198 H         1 UNK         0.0766 
    103 H103      -53.5144  -31.0554   11.3144 H         1 UNK         0.0798 
    104 H104      -52.3302  -30.9918   12.6063 H         1 UNK         0.0798 
    105 H105      -53.1513  -29.5186   12.0995 H         1 UNK         0.0798 
    106 H106      -54.0477  -29.2403   14.6198 H         1 UNK         0.3198 
    107 H107      -54.1054  -29.3363   17.0402 H         1 UNK         0.0843 
    108 H108      -52.2873  -31.5531   18.1276 H         1 UNK         0.0831 
    109 H109      -54.0204  -31.4289   18.3932 H         1 UNK         0.0831 
    110 H110      -52.9496  -30.2037   19.0505 H         1 UNK         0.0831 
    111 H111      -51.2153  -29.6048   17.1233 H         1 UNK         0.3133 
    112 H112      -50.0209  -27.6971   16.7434 H         1 UNK         0.0566 
    113 H113      -50.2231  -28.0847   13.7029 H         1 UNK         0.0814 
    114 H114      -49.6624  -29.3000   14.8432 H         1 UNK         0.0814 
    115 H115      -48.7317  -27.8294   14.6088 H         1 UNK         0.0814 
    116 H116      -50.1758  -25.7887   14.6620 H         1 UNK         0.3091 
    117 H117      -51.7016  -23.7175   14.9283 H         1 UNK         0.0702 
    118 H118      -51.7016  -21.7077   16.4078 H         1 UNK         0.0785 
    119 H119      -51.1886  -22.6969   17.7743 H         1 UNK         0.0785 
    120 H120      -52.7578  -22.9649   17.0319 H         1 UNK         0.0785 
    121 H121      -49.6397  -23.1265   14.4510 H         1 UNK         0.2998 
    122 H122      -46.8345  -22.1317   16.1266 H         1 UNK         0.0697 
    123 H123      -45.4250  -23.8785   15.0485 H         1 UNK         0.0825 
    124 H124      -46.8323  -24.9250   14.8613 H         1 UNK         0.0825 
    125 H125      -46.2298  -24.5312   16.4654 H         1 UNK         0.0825 
    126 H126      -47.1643  -22.9572   13.3982 H         1 UNK         0.3029 
    127 H127      -48.9305  -20.0172   12.3312 H         1 UNK         0.0897 
    128 H128      -46.4902  -19.4684   12.2736 H         1 UNK         0.0792 
    129 H129      -47.0607  -20.0101   10.7029 H         1 UNK         0.0792 
    130 H130      -46.1261  -21.0994   11.7252 H         1 UNK         0.0792 
    131 H131      -48.1503  -22.2905   10.8466 H         1 UNK         0.3086 
    132 H132      -51.1025  -24.2708   11.4484 H         1 UNK         0.0583 
    133 H133      -51.6363  -22.6937    9.6238 H         1 UNK         0.1020 
    134 H134      -49.9927  -22.7433    9.0426 H         1 UNK         0.1020 
    135 H135      -53.1979  -24.8916    9.7371 H         1 UNK         0.0694 
    136 H136      -53.4306  -24.0546    8.2133 H         1 UNK         0.0694 
    137 H137      -48.7050  -24.8525   10.0249 H         1 UNK         0.2989 
    138 H138      -46.9423  -26.3259   12.7545 H         1 UNK         0.1055 
    139 H139      -48.4088  -28.1480   11.9219 H         1 UNK         0.0806 
    140 H140      -46.8469  -28.2147   11.1262 H         1 UNK         0.0806 
    141 H141      -48.2470  -27.5728   10.2719 H         1 UNK         0.0806 
    142 H142      -46.4310  -25.8765    9.9314 H         1 UNK         0.3061 
    143 H143      -44.7356  -22.7647   10.3891 H         1 UNK         0.0734 
    144 H144      -43.6234  -25.5599    9.7832 H         1 UNK         0.0832 
    145 H145      -42.8614  -24.0246    9.3640 H         1 UNK         0.0832 
    146 H146      -43.0457  -24.4843   11.0477 H         1 UNK         0.0832 
    147 H147      -45.0795  -24.4232    8.0961 H         1 UNK         0.3156 
    148 H148      -48.2761  -23.2700    7.0966 H         1 UNK         0.0589 
    149 H149      -47.0591  -22.5452    5.0681 H         1 UNK         0.0808 
    150 H150      -45.5200  -22.5998    5.9292 H         1 UNK         0.0808 
    151 H151      -46.7457  -21.4229    6.3799 H         1 UNK         0.0808 
    152 H152      -46.5300  -24.9231    5.6845 H         1 UNK         0.3098 
    153 H153      -47.0649  -27.0970    5.4310 H         1 UNK         0.0720 
    154 H154      -45.1167  -27.3881    7.0244 H         1 UNK         0.0791 
    155 H155      -45.8394  -28.9382    6.6315 H         1 UNK         0.0791 
    156 H156      -46.1797  -28.1777    8.1838 H         1 UNK         0.0791 
    157 H157      -49.0887  -27.6328    7.3604 H         1 UNK         0.3028 
@<TRIPOS>BOND
     1    1    2 1    
     2    1   82 1    
     3    1   83 1    
     4    1   84 1    
     5    2    3 2    
     6    2    4 am   BACKBONE|DICT|INTERRES
     7    4    5 1    
     8    4   85 1    
     9    5    6 1    
    10    5   80 1    
    11    5   86 1    
    12    6    7 1    
    13    6   87 1    
    14    6   88 1    
    15    7    8 1    
    16    8    9 1    
    17    8   89 1    
    18    8   90 1    
    19    9   10 ar   
    20    9   14 ar   
    21   10   11 ar   
    22   10   91 1    
    23   11   12 ar   
    24   11   58 1    
    25   12   13 ar   
    26   12   92 1    
    27   13   14 ar   
    28   13   15 1    
    29   14   93 1    
    30   15   16 1    
    31   15   94 1    
    32   15   95 1    
    33   16   17 1    
    34   17   18 1    
    35   17   96 1    
    36   17   97 1    
    37   18   19 1    
    38   18   22 1    
    39   18   98 1    
    40   19   20 am   BACKBONE|DICT|INTERRES
    41   19   21 2    
    42   20   99 1    
    43   20  100 1    
    44   22   23 am   BACKBONE|DICT|INTERRES
    45   22  101 1    
    46   23   24 2    
    47   23   25 1    
    48   25   26 1    
    49   25   27 1    
    50   25  102 1    
    51   26  103 1    
    52   26  104 1    
    53   26  105 1    
    54   27   28 am   BACKBONE|DICT|INTERRES
    55   27  106 1    
    56   28   29 2    
    57   28   30 1    
    58   30   31 1    
    59   30   32 1    
    60   30  107 1    
    61   31  108 1    
    62   31  109 1    
    63   31  110 1    
    64   32   33 am   BACKBONE|DICT|INTERRES
    65   32  111 1    
    66   33   34 2    
    67   33   35 1    
    68   35   36 1    
    69   35   37 1    
    70   35  112 1    
    71   36  113 1    
    72   36  114 1    
    73   36  115 1    
    74   37   38 am   BACKBONE|DICT|INTERRES
    75   37  116 1    
    76   38   39 2    
    77   38   40 1    
    78   40   41 1    
    79   40   42 1    
    80   40  117 1    
    81   41  118 1    
    82   41  119 1    
    83   41  120 1    
    84   42   43 am   BACKBONE|DICT|INTERRES
    85   42  121 1    
    86   43   44 2    
    87   43   45 1    
    88   45   46 1    
    89   45   47 1    
    90   45  122 1    
    91   46  123 1    
    92   46  124 1    
    93   46  125 1    
    94   47   48 am   BACKBONE|DICT|INTERRES
    95   47  126 1    
    96   48   49 2    
    97   48   50 1    
    98   50   51 1    
    99   50   52 1    
   100   50  127 1    
   101   51  128 1    
   102   51  129 1    
   103   51  130 1    
   104   52   53 am   BACKBONE|DICT|INTERRES
   105   52  131 1    
   106   53   54 2    
   107   53   55 1    
   108   55   56 1    
   109   55   59 1    
   110   55  132 1    
   111   56   57 1    
   112   56  133 1    
   113   56  134 1    
   114   57   58 1    
   115   58  135 1    
   116   58  136 1    
   117   59   60 am   BACKBONE|DICT|INTERRES
   118   59  137 1    
   119   60   61 2    
   120   60   62 1    
   121   62   63 1    
   122   62   64 1    
   123   62  138 1    
   124   63  139 1    
   125   63  140 1    
   126   63  141 1    
   127   64   65 am   BACKBONE|DICT|INTERRES
   128   64  142 1    
   129   65   66 2    
   130   65   67 1    
   131   67   68 1    
   132   67   69 1    
   133   67  143 1    
   134   68  144 1    
   135   68  145 1    
   136   68  146 1    
   137   69   70 am   BACKBONE|DICT|INTERRES
   138   69  147 1    
   139   70   71 2    
   140   70   72 1    
   141   72   73 1    
   142   72   74 1    
   143   72  148 1    
   144   73  149 1    
   145   73  150 1    
   146   73  151 1    
   147   74   75 am   BACKBONE|DICT|INTERRES
   148   74  152 1    
   149   75   76 2    
   150   75   77 1    
   151   77   78 1    
   152   77   79 1    
   153   77  153 1    
   154   78  154 1    
   155   78  155 1    
   156   78  156 1    
   157   79   80 am   BACKBONE|DICT|INTERRES
   158   79  157 1    
   159   80   81 2    
@<TRIPOS>SUBSTRUCTURE
     1 UNK         1 GROUP             0       ****    0 ROOT    
