@<TRIPOS>MOLECULE
3R207
157   159    1
SMALL
USER_CHARGES


@<TRIPOS>ATOM
      1 CA        -46.5787  -31.5911    4.1850 C.3       0 UNK        -0.1975 
      2 C         -47.1608  -30.3127    3.6004 C.2       0 UNK         0.4852 
      3 O         -46.8292  -29.9495    2.4713 O.2       0 UNK        -0.5216 
      4 N         -48.0254  -29.6283    4.3615 N.am      1 UNK        -0.4461 
      5 CA        -48.6918  -28.3806    3.9622 C.3       1 UNK         0.0864 
      6 C6        -49.8732  -28.0323    4.8987 C.3       14 UNK        -0.0898 
      7 S7        -51.1795  -29.3068    4.9311 S.3       14 UNK        -0.2598 
      8 C8        -51.1209  -29.8712    6.6714 C.3       14 UNK         0.0286 
      9 C9        -51.5669  -28.8642    7.7383 C.ar      14 UNK        -0.0844 
     10 C10       -51.9305  -27.5420    7.4468 C.ar      14 UNK        -0.0881 
     11 C11       -52.2799  -26.6481    8.4622 C.ar      14 UNK        -0.0643 
     12 C12       -52.3085  -27.0953    9.7866 C.ar      14 UNK        -0.0930 
     13 C13       -51.9614  -28.4132   10.0974 C.ar      14 UNK        -0.0827 
     14 C14       -51.5923  -29.2877    9.0711 C.ar      14 UNK        -0.1249 
     15 C15       -51.9747  -28.8886   11.5427 C.3       14 UNK         0.0141 
     16 S16       -53.6677  -29.2754   12.0796 S.3       14 UNK        -0.2313 
     17 C17       -53.3768  -29.8197   13.7955 C.3       14 UNK        -0.0915 
     18 CA        -54.6841  -30.3008   14.4799 C.3       13 UNK         0.0968 
     19 C         -54.3978  -30.9017   15.8812 C.2       13 UNK         0.5732 
     20 N         -53.9859  -32.1610   15.9384 N.am      13 UNK        -0.7310 
     21 O         -54.5119  -30.2384   16.9111 O.2       13 UNK        -0.5035 
     22 N         -55.6728  -29.2207   14.5538 N.am      13 UNK        -0.4233 
     23 C         -56.9980  -29.3808   14.5689 C.2       13 UNK         0.4989 
     24 O         -57.5638  -30.4711   14.4604 O.2       13 UNK        -0.4996 
     25 CA        -57.8148  -28.0852   14.7324 C.3       12 UNK         0.0216 
     26 CB        -59.3317  -28.2891   14.5260 C.3       12 UNK        -0.1964 
     27 N         -57.5351  -27.4211   16.0122 N.am      12 UNK        -0.4276 
     28 C         -57.7627  -27.8947   17.2466 C.2       12 UNK         0.5020 
     29 O         -58.2967  -28.9793   17.4860 O.2       12 UNK        -0.5489 
     30 CA        -57.2936  -27.0000   18.4083 C.3       11 UNK         0.0294 
     31 CB        -57.5864  -27.6142   19.7908 C.3       11 UNK        -0.2019 
     32 N         -55.8568  -26.7527   18.2977 N.am      11 UNK        -0.4493 
     33 C         -55.2938  -25.6830   17.7235 C.2       11 UNK         0.4932 
     34 O         -55.9398  -24.7397   17.2635 O.2       11 UNK        -0.5029 
     35 CA        -53.7528  -25.6609   17.6269 C.3       10 UNK         0.0280 
     36 CB        -53.0706  -26.9531   18.1319 C.3       10 UNK        -0.1976 
     37 N         -53.2613  -25.3524   16.2784 N.am      10 UNK        -0.4242 
     38 C         -53.6171  -25.9440   15.1264 C.2       10 UNK         0.5072 
     39 O         -54.5379  -26.7528   15.0153 O.2       10 UNK        -0.5224 
     40 CA        -52.7856  -25.6014   13.8777 C.3       9 UNK         0.0343 
     41 CB        -53.4600  -24.4789   13.0742 C.3       9 UNK        -0.2003 
     42 N         -51.3849  -25.2549   14.1597 N.am      9 UNK        -0.4272 
     43 C         -50.4906  -26.0822   14.7311 C.2       9 UNK         0.4988 
     44 O         -50.7572  -27.2375   15.0657 O.2       9 UNK        -0.5108 
     45 CA        -49.0718  -25.5340   14.9824 C.3       8 UNK         0.0248 
     46 CB        -48.0150  -26.6532   15.0412 C.3       8 UNK        -0.2001 
     47 N         -48.6885  -24.5850   13.9401 N.am      8 UNK        -0.4140 
     48 C         -48.3942  -23.2894   14.1179 C.2       8 UNK         0.5028 
     49 O         -48.3644  -22.7408   15.2201 O.2       8 UNK        -0.5428 
     50 CA        -48.1017  -22.4458   12.8575 C.3       7 UNK         0.0264 
     51 CB        -46.5935  -22.1813   12.7239 C.3       7 UNK        -0.1988 
     52 N         -48.5969  -23.0463   11.6142 N.am      7 UNK        -0.4454 
     53 C         -49.8886  -23.2785   11.3429 C.2       7 UNK         0.5027 
     54 O         -50.8061  -22.8894   12.0655 O.2       7 UNK        -0.5083 
     55 CA        -50.2172  -24.1576   10.1203 C.3       6 UNK         0.0844 
     56 C56       -50.6500  -23.3059    8.9068 C.3       14 UNK        -0.0967 
     57 S57       -51.1804  -24.2967    7.4668 S.3       14 UNK        -0.2604 
     58 C58       -52.6305  -25.2077    8.1055 C.3       14 UNK         0.0134 
     59 N         -49.1528  -25.1159    9.7999 N.am      6 UNK        -0.4116 
     60 C         -48.8128  -26.1568   10.5739 C.2       5 UNK         0.5034 
     61 O         -49.3430  -26.4081   11.6542 O.2       5 UNK        -0.5045 
     62 CA        -47.6403  -27.0221   10.0937 C.3       5 UNK         0.0224 
     63 CB        -48.0747  -27.9665    8.9608 C.3       5 UNK        -0.1978 
     64 N         -46.5219  -26.1829    9.6591 N.am      5 UNK        -0.4737 
     65 C         -45.7082  -25.5387   10.5109 C.2       4 UNK         0.5027 
     66 O         -45.7590  -25.6789   11.7324 O.2       4 UNK        -0.5211 
     67 CA        -44.6758  -24.5587    9.9210 C.3       4 UNK         0.0297 
     68 CB        -43.3094  -25.2472    9.7756 C.3       4 UNK        -0.1993 
     69 N         -45.0667  -23.9900    8.6297 N.am      4 UNK        -0.4486 
     70 C         -46.1404  -23.2165    8.4139 C.2       3 UNK         0.4961 
     71 O         -46.8978  -22.8331    9.3042 O.2       3 UNK        -0.5105 
     72 CA        -46.4577  -22.8640    6.9482 C.3       3 UNK         0.0299 
     73 CB        -45.8539  -21.4993    6.5824 C.3       3 UNK        -0.1972 
     74 N         -46.0087  -23.8767    5.9813 N.am      3 UNK        -0.4305 
     75 C         -46.4055  -25.1570    5.9825 C.2       2 UNK         0.5006 
     76 O         -47.1838  -25.6279    6.8158 O.2       2 UNK        -0.5106 
     77 CA        -45.7635  -26.0808    4.9355 C.3       2 UNK         0.0296 
     78 CB        -44.4094  -26.6015    5.4461 C.3       2 UNK        -0.2002 
     79 N         -46.6370  -27.2221    4.6685 N.am      2 UNK        -0.4032 
     80 C         -47.7317  -27.1730    3.8975 C.2       1 UNK         0.5000 
     81 O         -48.0166  -26.2134    3.1774 O.2       1 UNK        -0.5238 
     82 H82       -46.8286  -32.4408    3.5503 H         1 UNK         0.0889 
     83 H83       -46.9591  -31.7930    5.1862 H         1 UNK         0.0889 
     84 H84       -45.4931  -31.5166    4.2432 H         1 UNK         0.0889 
     85 H85       -48.2811  -29.9895    5.2688 H         1 UNK         0.3028 
     86 H86       -49.0884  -28.5237    2.9545 H         1 UNK         0.0864 
     87 H87       -49.5105  -27.8496    5.9119 H         1 UNK         0.0720 
     88 H88       -50.3466  -27.1015    4.5789 H         1 UNK         0.0720 
     89 H89       -51.7514  -30.7578    6.7521 H         1 UNK         0.0814 
     90 H90       -50.1053  -30.1978    6.8986 H         1 UNK         0.0814 
     91 H91       -51.9321  -27.1788    6.4306 H         1 UNK         0.1469 
     92 H92       -52.5979  -26.4235   10.5818 H         1 UNK         0.1381 
     93 H93       -51.3173  -30.3055    9.3126 H         1 UNK         0.1206 
     94 H94       -51.3488  -29.7747   11.6578 H         1 UNK         0.0813 
     95 H95       -51.5408  -28.1245   12.1889 H         1 UNK         0.0813 
     96 H96       -52.9251  -28.9987   14.3557 H         1 UNK         0.0638 
     97 H97       -52.6382  -30.6230   13.7728 H         1 UNK         0.0638 
     98 H98       -55.1040  -31.1002   13.8659 H         1 UNK         0.0568 
     99 H99       -53.7829  -32.5672   16.8381 H         1 UNK         0.3450 
    100 H100      -53.8789  -32.7147   15.1029 H         1 UNK         0.3450 
    101 H101      -55.2861  -28.2886   14.7044 H         1 UNK         0.2987 
    102 H102      -57.4702  -27.4037   13.9527 H         1 UNK         0.0766 
    103 H103      -59.8731  -27.3466   14.6070 H         1 UNK         0.0798 
    104 H104      -59.7554  -28.9825   15.2531 H         1 UNK         0.0798 
    105 H105      -59.5362  -28.6965   13.5352 H         1 UNK         0.0798 
    106 H106      -57.0309  -26.5454   15.9436 H         1 UNK         0.3198 
    107 H107      -57.8459  -26.0601   18.3394 H         1 UNK         0.0843 
    108 H108      -57.0785  -28.5701   19.9257 H         1 UNK         0.0831 
    109 H109      -58.6549  -27.7910   19.9208 H         1 UNK         0.0831 
    110 H110      -57.2696  -26.9497   20.5947 H         1 UNK         0.0831 
    111 H111      -55.2519  -27.5096   18.5854 H         1 UNK         0.3133 
    112 H112      -53.4240  -24.8418   18.2679 H         1 UNK         0.0566 
    113 H113      -51.9852  -26.8688   18.0730 H         1 UNK         0.0814 
    114 H114      -53.3130  -27.1566   19.1757 H         1 UNK         0.0814 
    115 H115      -53.3584  -27.8230   17.5397 H         1 UNK         0.0814 
    116 H116      -52.5272  -24.6610   16.2312 H         1 UNK         0.3091 
    117 H117      -52.7800  -26.4957   13.2544 H         1 UNK         0.0702 
    118 H118      -54.5166  -24.6953   12.9090 H         1 UNK         0.0785 
    119 H119      -53.3985  -23.5192   13.5884 H         1 UNK         0.0785 
    120 H120      -53.0034  -24.3658   12.0918 H         1 UNK         0.0785 
    121 H121      -51.0815  -24.3327   13.8740 H         1 UNK         0.2998 
    122 H122      -49.0984  -25.0409   15.9559 H         1 UNK         0.0697 
    123 H123      -47.9845  -27.2225   14.1110 H         1 UNK         0.0825 
    124 H124      -48.2260  -27.3544   15.8496 H         1 UNK         0.0825 
    125 H125      -47.0184  -26.2480   15.2171 H         1 UNK         0.0825 
    126 H126      -48.7177  -24.9580   12.9968 H         1 UNK         0.3029 
    127 H127      -48.6080  -21.4867   12.9856 H         1 UNK         0.0897 
    128 H128      -46.3733  -21.5549   11.8590 H         1 UNK         0.0792 
    129 H129      -46.0309  -23.1090   12.6197 H         1 UNK         0.0792 
    130 H130      -46.2087  -21.6652   13.6046 H         1 UNK         0.0792 
    131 H131      -47.9038  -23.2923   10.9124 H         1 UNK         0.3086 
    132 H132      -51.0811  -24.7428   10.4287 H         1 UNK         0.0583 
    133 H133      -51.4713  -22.6398    9.1795 H         1 UNK         0.1020 
    134 H134      -49.8299  -22.6591    8.5882 H         1 UNK         0.1020 
    135 H135      -53.0620  -24.6824    8.9588 H         1 UNK         0.0694 
    136 H136      -53.4020  -25.2160    7.3343 H         1 UNK         0.0694 
    137 H137      -48.6669  -24.9788    8.9245 H         1 UNK         0.2989 
    138 H138      -47.3086  -27.6361   10.9345 H         1 UNK         0.1055 
    139 H139      -48.8033  -28.6903    9.3264 H         1 UNK         0.0806 
    140 H140      -47.2308  -28.5291    8.5620 H         1 UNK         0.0806 
    141 H141      -48.5436  -27.4297    8.1360 H         1 UNK         0.0806 
    142 H142      -46.4616  -25.9876    8.6648 H         1 UNK         0.3061 
    143 H143      -44.5703  -23.7321   10.6266 H         1 UNK         0.0734 
    144 H144      -42.5432  -24.5462    9.4439 H         1 UNK         0.0832 
    145 H145      -42.9772  -25.6582   10.7301 H         1 UNK         0.0832 
    146 H146      -43.3456  -26.0713    9.0618 H         1 UNK         0.0832 
    147 H147      -44.5046  -24.2478    7.8323 H         1 UNK         0.3156 
    148 H148      -47.5441  -22.7907    6.8626 H         1 UNK         0.0589 
    149 H149      -44.7639  -21.5154    6.6194 H         1 UNK         0.0808 
    150 H150      -46.1529  -21.1873    5.5815 H         1 UNK         0.0808 
    151 H151      -46.1917  -20.7260    7.2740 H         1 UNK         0.0808 
    152 H152      -45.3571  -23.5694    5.2728 H         1 UNK         0.3098 
    153 H153      -45.6066  -25.5220    4.0103 H         1 UNK         0.0720 
    154 H154      -44.5116  -27.1425    6.3882 H         1 UNK         0.0791 
    155 H155      -43.7099  -25.7818    5.6146 H         1 UNK         0.0791 
    156 H156      -43.9466  -27.2739    4.7232 H         1 UNK         0.0791 
    157 H157      -46.5059  -28.0365    5.2491 H         1 UNK         0.3028 
@<TRIPOS>BOND
     1    1    2 1    
     2    1   82 1    
     3    1   83 1    
     4    1   84 1    
     5    2    3 2    
     6    2    4 am   BACKBONE|DICT|INTERRES
     7    4    5 1    
     8    4   85 1    
     9    5    6 1    
    10    5   80 1    
    11    5   86 1    
    12    6    7 1    
    13    6   87 1    
    14    6   88 1    
    15    7    8 1    
    16    8    9 1    
    17    8   89 1    
    18    8   90 1    
    19    9   10 ar   
    20    9   14 ar   
    21   10   11 ar   
    22   10   91 1    
    23   11   12 ar   
    24   11   58 1    
    25   12   13 ar   
    26   12   92 1    
    27   13   14 ar   
    28   13   15 1    
    29   14   93 1    
    30   15   16 1    
    31   15   94 1    
    32   15   95 1    
    33   16   17 1    
    34   17   18 1    
    35   17   96 1    
    36   17   97 1    
    37   18   19 1    
    38   18   22 1    
    39   18   98 1    
    40   19   20 am   BACKBONE|DICT|INTERRES
    41   19   21 2    
    42   20   99 1    
    43   20  100 1    
    44   22   23 am   BACKBONE|DICT|INTERRES
    45   22  101 1    
    46   23   24 2    
    47   23   25 1    
    48   25   26 1    
    49   25   27 1    
    50   25  102 1    
    51   26  103 1    
    52   26  104 1    
    53   26  105 1    
    54   27   28 am   BACKBONE|DICT|INTERRES
    55   27  106 1    
    56   28   29 2    
    57   28   30 1    
    58   30   31 1    
    59   30   32 1    
    60   30  107 1    
    61   31  108 1    
    62   31  109 1    
    63   31  110 1    
    64   32   33 am   BACKBONE|DICT|INTERRES
    65   32  111 1    
    66   33   34 2    
    67   33   35 1    
    68   35   36 1    
    69   35   37 1    
    70   35  112 1    
    71   36  113 1    
    72   36  114 1    
    73   36  115 1    
    74   37   38 am   BACKBONE|DICT|INTERRES
    75   37  116 1    
    76   38   39 2    
    77   38   40 1    
    78   40   41 1    
    79   40   42 1    
    80   40  117 1    
    81   41  118 1    
    82   41  119 1    
    83   41  120 1    
    84   42   43 am   BACKBONE|DICT|INTERRES
    85   42  121 1    
    86   43   44 2    
    87   43   45 1    
    88   45   46 1    
    89   45   47 1    
    90   45  122 1    
    91   46  123 1    
    92   46  124 1    
    93   46  125 1    
    94   47   48 am   BACKBONE|DICT|INTERRES
    95   47  126 1    
    96   48   49 2    
    97   48   50 1    
    98   50   51 1    
    99   50   52 1    
   100   50  127 1    
   101   51  128 1    
   102   51  129 1    
   103   51  130 1    
   104   52   53 am   BACKBONE|DICT|INTERRES
   105   52  131 1    
   106   53   54 2    
   107   53   55 1    
   108   55   56 1    
   109   55   59 1    
   110   55  132 1    
   111   56   57 1    
   112   56  133 1    
   113   56  134 1    
   114   57   58 1    
   115   58  135 1    
   116   58  136 1    
   117   59   60 am   BACKBONE|DICT|INTERRES
   118   59  137 1    
   119   60   61 2    
   120   60   62 1    
   121   62   63 1    
   122   62   64 1    
   123   62  138 1    
   124   63  139 1    
   125   63  140 1    
   126   63  141 1    
   127   64   65 am   BACKBONE|DICT|INTERRES
   128   64  142 1    
   129   65   66 2    
   130   65   67 1    
   131   67   68 1    
   132   67   69 1    
   133   67  143 1    
   134   68  144 1    
   135   68  145 1    
   136   68  146 1    
   137   69   70 am   BACKBONE|DICT|INTERRES
   138   69  147 1    
   139   70   71 2    
   140   70   72 1    
   141   72   73 1    
   142   72   74 1    
   143   72  148 1    
   144   73  149 1    
   145   73  150 1    
   146   73  151 1    
   147   74   75 am   BACKBONE|DICT|INTERRES
   148   74  152 1    
   149   75   76 2    
   150   75   77 1    
   151   77   78 1    
   152   77   79 1    
   153   77  153 1    
   154   78  154 1    
   155   78  155 1    
   156   78  156 1    
   157   79   80 am   BACKBONE|DICT|INTERRES
   158   79  157 1    
   159   80   81 2    
@<TRIPOS>SUBSTRUCTURE
     1 UNK         1 GROUP             0       ****    0 ROOT    
