@<TRIPOS>MOLECULE
3R207
157   159    1
SMALL
USER_CHARGES


@<TRIPOS>ATOM
      1 CA        -47.1642  -26.9196    3.1972 C.3       0 UNK        -0.1975 
      2 C         -48.0496  -26.6156    4.3952 C.2       0 UNK         0.4852 
      3 O         -47.5492  -26.1521    5.4191 O.2       0 UNK        -0.5216 
      4 N         -49.3650  -26.8408    4.2677 N.am      1 UNK        -0.4461 
      5 CA        -50.3893  -26.6838    5.3141 C.3       1 UNK         0.0864 
      6 C6        -50.3395  -27.8295    6.3676 C.3       14 UNK        -0.0898 
      7 S7        -52.0162  -28.3459    6.8696 S.3       14 UNK        -0.2598 
      8 C8        -51.7734  -30.0975    7.3070 C.3       14 UNK         0.0286 
      9 C9        -51.3833  -30.2755    8.7678 C.ar      14 UNK        -0.0844 
     10 C10       -50.0936  -30.6841    9.1246 C.ar      14 UNK        -0.0881 
     11 C11       -49.7642  -30.9031   10.4679 C.ar      14 UNK        -0.0643 
     12 C12       -50.7323  -30.7001   11.4557 C.ar      14 UNK        -0.0930 
     13 C13       -52.0159  -30.2686   11.1121 C.ar      14 UNK        -0.0827 
     14 C14       -52.3359  -30.0621    9.7680 C.ar      14 UNK        -0.1249 
     15 C15       -53.0469  -29.9865   12.1918 C.3       14 UNK         0.0141 
     16 S16       -54.4289  -31.1664   12.1422 S.3       14 UNK        -0.2313 
     17 C17       -55.4409  -30.5724   13.5386 C.3       14 UNK        -0.0915 
     18 CA        -56.5482  -29.5747   13.1029 C.3       13 UNK         0.0968 
     19 C         -57.6021  -29.3645   14.2301 C.2       13 UNK         0.5732 
     20 N         -57.8682  -28.1501   14.6981 N.am      13 UNK        -0.7310 
     21 O         -58.2107  -30.3309   14.6840 O.2       13 UNK        -0.5035 
     22 N         -55.9720  -28.3212   12.5947 N.am      13 UNK        -0.4233 
     23 C         -56.5278  -27.5462   11.6560 C.2       13 UNK         0.4989 
     24 O         -57.5527  -27.8516   11.0429 O.2       13 UNK        -0.4996 
     25 CA        -55.8246  -26.2043   11.3492 C.3       12 UNK         0.0216 
     26 CB        -56.7786  -25.1680   10.7186 C.3       12 UNK        -0.1964 
     27 N         -55.1253  -25.6122   12.4978 N.am      12 UNK        -0.4276 
     28 C         -55.6367  -25.3159   13.7011 C.2       12 UNK         0.5020 
     29 O         -56.8074  -25.5200   14.0302 O.2       12 UNK        -0.5489 
     30 CA        -54.6473  -24.7309   14.7241 C.3       11 UNK         0.0294 
     31 CB        -55.3131  -23.6395   15.5808 C.3       11 UNK        -0.2019 
     32 N         -54.0247  -25.7142   15.6202 N.am      11 UNK        -0.4493 
     33 C         -53.6116  -26.9643   15.3578 C.2       11 UNK         0.4932 
     34 O         -53.7988  -27.5723   14.3042 O.2       11 UNK        -0.5029 
     35 CA        -52.7650  -27.6064   16.4635 C.3       10 UNK         0.0280 
     36 CB        -52.5734  -29.1226   16.2809 C.3       10 UNK        -0.1976 
     37 N         -51.4617  -26.9498   16.4342 N.am      10 UNK        -0.4242 
     38 C         -51.0999  -25.9427   17.2383 C.2       10 UNK         0.5072 
     39 O         -51.7768  -25.5440   18.1874 O.2       10 UNK        -0.5224 
     40 CA        -49.7844  -25.2278   16.8960 C.3       9 UNK         0.0343 
     41 CB        -48.5736  -26.1259   17.1988 C.3       9 UNK        -0.2003 
     42 N         -49.7321  -24.7775   15.5025 N.am      9 UNK        -0.4272 
     43 C         -50.5406  -23.8570   14.9531 C.2       9 UNK         0.4988 
     44 O         -51.4312  -23.2683   15.5660 O.2       9 UNK        -0.5108 
     45 CA        -50.3157  -23.5320   13.4677 C.3       8 UNK         0.0248 
     46 CB        -49.1007  -22.6080   13.2818 C.3       8 UNK        -0.2001 
     47 N         -50.1365  -24.7479   12.6772 N.am      8 UNK        -0.4140 
     48 C         -51.1403  -25.5192   12.2382 C.2       8 UNK         0.5028 
     49 O         -52.3315  -25.2220   12.3356 O.2       8 UNK        -0.5428 
     50 CA        -50.7610  -26.8525   11.5789 C.3       7 UNK         0.0264 
     51 CB        -50.7575  -26.7201   10.0513 C.3       7 UNK        -0.1988 
     52 N         -49.4660  -27.3717   12.0188 N.am      7 UNK        -0.4454 
     53 C         -49.2289  -27.8971   13.2287 C.2       7 UNK         0.5027 
     54 O         -50.0760  -27.9841   14.1181 O.2       7 UNK        -0.5083 
     55 CA        -47.7839  -28.3514   13.5191 C.3       6 UNK         0.0844 
     56 C56       -47.5272  -29.8143   13.0740 C.3       14 UNK        -0.0967 
     57 S57       -47.2543  -30.0200   11.2749 S.3       14 UNK        -0.2604 
     58 C58       -48.3732  -31.3908   10.8468 C.3       14 UNK         0.0134 
     59 N         -46.7816  -27.4233   12.9875 N.am      6 UNK        -0.4116 
     60 C         -46.6612  -26.1335   13.3286 C.2       5 UNK         0.5034 
     61 O         -47.3635  -25.5791   14.1722 O.2       5 UNK        -0.5045 
     62 CA        -45.6158  -25.3079   12.5635 C.3       5 UNK         0.0224 
     63 CB        -44.2523  -25.3779   13.2686 C.3       5 UNK        -0.1978 
     64 N         -45.4674  -25.7118   11.1609 N.am      5 UNK        -0.4737 
     65 C         -46.4301  -25.6043   10.2352 C.2       4 UNK         0.5027 
     66 O         -47.5676  -25.1947   10.4741 O.2       4 UNK        -0.5211 
     67 CA        -46.0671  -26.0774    8.8179 C.3       4 UNK         0.0297 
     68 CB        -46.7648  -27.4096    8.5026 C.3       4 UNK        -0.1993 
     69 N         -46.4126  -25.0989    7.7856 N.am      4 UNK        -0.4486 
     70 C         -45.9037  -23.8625    7.6885 C.2       3 UNK         0.4961 
     71 O         -45.0993  -23.3864    8.4909 O.2       3 UNK        -0.5105 
     72 CA        -46.3196  -23.0188    6.4741 C.3       3 UNK         0.0299 
     73 CB        -45.3553  -23.2733    5.3030 C.3       3 UNK        -0.1972 
     74 N         -47.6874  -23.2967    6.0283 N.am      3 UNK        -0.4305 
     75 C         -48.7315  -22.4761    6.2145 C.2       2 UNK         0.5006 
     76 O         -48.6673  -21.4269    6.8572 O.2       2 UNK        -0.5106 
     77 CA        -50.0700  -22.8424    5.5417 C.3       2 UNK         0.0296 
     78 CB        -50.3141  -21.9415    4.3189 C.3       2 UNK        -0.2002 
     79 N         -50.1567  -24.2419    5.1188 N.am      2 UNK        -0.4032 
     80 C         -50.4286  -25.2653    5.9406 C.2       1 UNK         0.5000 
     81 O         -50.6841  -25.1129    7.1355 O.2       1 UNK        -0.5238 
     82 H82       -46.4115  -27.6590    3.4689 H         1 UNK         0.0889 
     83 H83       -46.6511  -26.0151    2.8717 H         1 UNK         0.0889 
     84 H84       -47.7354  -27.3095    2.3550 H         1 UNK         0.0889 
     85 H85       -49.7106  -27.1981    3.3872 H         1 UNK         0.3028 
     86 H86       -51.3307  -26.7689    4.7686 H         1 UNK         0.0864 
     87 H87       -49.8366  -28.7002    5.9447 H         1 UNK         0.0720 
     88 H88       -49.7554  -27.5562    7.2467 H         1 UNK         0.0720 
     89 H89       -51.0408  -30.5585    6.6431 H         1 UNK         0.0814 
     90 H90       -52.7098  -30.6284    7.1299 H         1 UNK         0.0814 
     91 H91       -49.3499  -30.8484    8.3568 H         1 UNK         0.1469 
     92 H92       -50.4838  -30.8665   12.4942 H         1 UNK         0.1381 
     93 H93       -53.3310  -29.7341    9.4995 H         1 UNK         0.1206 
     94 H94       -52.5863  -30.0085   13.1794 H         1 UNK         0.0813 
     95 H95       -53.4271  -28.9758   12.0502 H         1 UNK         0.0813 
     96 H96       -54.7985  -30.1297   14.3001 H         1 UNK         0.0638 
     97 H97       -55.8818  -31.4591   13.9975 H         1 UNK         0.0638 
     98 H98       -57.0993  -30.0481   12.2883 H         1 UNK         0.0568 
     99 H99       -57.4032  -27.3226   14.3348 H         1 UNK         0.3450 
    100 H100      -58.5614  -28.0495   15.4215 H         1 UNK         0.3450 
    101 H101      -55.1552  -27.9796   13.0972 H         1 UNK         0.2987 
    102 H102      -55.0516  -26.4344   10.6145 H         1 UNK         0.0766 
    103 H103      -57.6069  -24.9263   11.3858 H         1 UNK         0.0798 
    104 H104      -57.2073  -25.5413    9.7877 H         1 UNK         0.0798 
    105 H105      -56.2566  -24.2408   10.4824 H         1 UNK         0.0798 
    106 H106      -54.1193  -25.4718   12.3781 H         1 UNK         0.3198 
    107 H107      -53.8384  -24.2502   14.1727 H         1 UNK         0.0843 
    108 H108      -56.0773  -24.0540   16.2395 H         1 UNK         0.0831 
    109 H109      -55.7961  -22.8899   14.9524 H         1 UNK         0.0831 
    110 H110      -54.5812  -23.1182   16.1984 H         1 UNK         0.0831 
    111 H111      -53.7662  -25.3489   16.5266 H         1 UNK         0.3133 
    112 H112      -53.2673  -27.4457   17.4197 H         1 UNK         0.0566 
    113 H113      -53.5336  -29.6386   16.2755 H         1 UNK         0.0814 
    114 H114      -52.0641  -29.3588   15.3472 H         1 UNK         0.0814 
    115 H115      -51.9835  -29.5444   17.0944 H         1 UNK         0.0814 
    116 H116      -50.8695  -27.1924   15.6417 H         1 UNK         0.3091 
    117 H117      -49.7140  -24.3417   17.5303 H         1 UNK         0.0702 
    118 H118      -47.6365  -25.5900   17.0461 H         1 UNK         0.0785 
    119 H119      -48.5569  -27.0119   16.5633 H         1 UNK         0.0785 
    120 H120      -48.5878  -26.4657   18.2352 H         1 UNK         0.0785 
    121 H121      -48.9786  -25.1616   14.9366 H         1 UNK         0.2998 
    122 H122      -51.1979  -23.0018   13.1020 H         1 UNK         0.0697 
    123 H123      -48.1785  -23.0657   13.6401 H         1 UNK         0.0825 
    124 H124      -49.2352  -21.6753   13.8312 H         1 UNK         0.0825 
    125 H125      -48.9582  -22.3488   12.2324 H         1 UNK         0.0825 
    126 H126      -49.1882  -25.0598   12.5168 H         1 UNK         0.3029 
    127 H127      -51.5268  -27.5753   11.8602 H         1 UNK         0.0897 
    128 H128      -50.0371  -25.9768    9.7084 H         1 UNK         0.0792 
    129 H129      -51.7378  -26.4180    9.6806 H         1 UNK         0.0792 
    130 H130      -50.5114  -27.6679    9.5750 H         1 UNK         0.0792 
    131 H131      -48.7046  -27.3095   11.3577 H         1 UNK         0.3086 
    132 H132      -47.6747  -28.3280   14.6054 H         1 UNK         0.0583 
    133 H133      -46.6318  -30.1837   13.5764 H         1 UNK         0.1020 
    134 H134      -48.3311  -30.4671   13.4178 H         1 UNK         0.1020 
    135 H135      -47.9377  -31.9389   10.0100 H         1 UNK         0.0694 
    136 H136      -48.4290  -32.1037   11.6708 H         1 UNK         0.0694 
    137 H137      -46.1753  -27.7911   12.2691 H         1 UNK         0.2989 
    138 H138      -45.9544  -24.2692   12.5749 H         1 UNK         0.1055 
    139 H139      -44.3357  -25.0627   14.3099 H         1 UNK         0.0806 
    140 H140      -43.5246  -24.7208   12.7919 H         1 UNK         0.0806 
    141 H141      -43.8448  -26.3897   13.2663 H         1 UNK         0.0806 
    142 H142      -44.5594  -26.0559   10.8812 H         1 UNK         0.3061 
    143 H143      -44.9883  -26.2358    8.7602 H         1 UNK         0.0734 
    144 H144      -46.5503  -27.7457    7.4880 H         1 UNK         0.0832 
    145 H145      -46.4230  -28.1934    9.1772 H         1 UNK         0.0832 
    146 H146      -47.8471  -27.3324    8.6097 H         1 UNK         0.0832 
    147 H147      -47.0152  -25.4327    7.0373 H         1 UNK         0.3156 
    148 H148      -46.2217  -21.9690    6.7587 H         1 UNK         0.0589 
    149 H149      -45.3920  -24.3101    4.9657 H         1 UNK         0.0808 
    150 H150      -45.5903  -22.6352    4.4510 H         1 UNK         0.0808 
    151 H151      -44.3251  -23.0606    5.5919 H         1 UNK         0.0808 
    152 H152      -47.8328  -24.1830    5.5573 H         1 UNK         0.3098 
    153 H153      -50.8620  -22.6464    6.2679 H         1 UNK         0.0720 
    154 H154      -51.2880  -22.1369    3.8695 H         1 UNK         0.0791 
    155 H155      -49.5530  -22.0864    3.5511 H         1 UNK         0.0791 
    156 H156      -50.2960  -20.8874    4.6000 H         1 UNK         0.0791 
    157 H157      -49.9586  -24.4423    4.1490 H         1 UNK         0.3028 
@<TRIPOS>BOND
     1    1    2 1    
     2    1   82 1    
     3    1   83 1    
     4    1   84 1    
     5    2    3 2    
     6    2    4 am   BACKBONE|DICT|INTERRES
     7    4    5 1    
     8    4   85 1    
     9    5    6 1    
    10    5   80 1    
    11    5   86 1    
    12    6    7 1    
    13    6   87 1    
    14    6   88 1    
    15    7    8 1    
    16    8    9 1    
    17    8   89 1    
    18    8   90 1    
    19    9   10 ar   
    20    9   14 ar   
    21   10   11 ar   
    22   10   91 1    
    23   11   12 ar   
    24   11   58 1    
    25   12   13 ar   
    26   12   92 1    
    27   13   14 ar   
    28   13   15 1    
    29   14   93 1    
    30   15   16 1    
    31   15   94 1    
    32   15   95 1    
    33   16   17 1    
    34   17   18 1    
    35   17   96 1    
    36   17   97 1    
    37   18   19 1    
    38   18   22 1    
    39   18   98 1    
    40   19   20 am   BACKBONE|DICT|INTERRES
    41   19   21 2    
    42   20   99 1    
    43   20  100 1    
    44   22   23 am   BACKBONE|DICT|INTERRES
    45   22  101 1    
    46   23   24 2    
    47   23   25 1    
    48   25   26 1    
    49   25   27 1    
    50   25  102 1    
    51   26  103 1    
    52   26  104 1    
    53   26  105 1    
    54   27   28 am   BACKBONE|DICT|INTERRES
    55   27  106 1    
    56   28   29 2    
    57   28   30 1    
    58   30   31 1    
    59   30   32 1    
    60   30  107 1    
    61   31  108 1    
    62   31  109 1    
    63   31  110 1    
    64   32   33 am   BACKBONE|DICT|INTERRES
    65   32  111 1    
    66   33   34 2    
    67   33   35 1    
    68   35   36 1    
    69   35   37 1    
    70   35  112 1    
    71   36  113 1    
    72   36  114 1    
    73   36  115 1    
    74   37   38 am   BACKBONE|DICT|INTERRES
    75   37  116 1    
    76   38   39 2    
    77   38   40 1    
    78   40   41 1    
    79   40   42 1    
    80   40  117 1    
    81   41  118 1    
    82   41  119 1    
    83   41  120 1    
    84   42   43 am   BACKBONE|DICT|INTERRES
    85   42  121 1    
    86   43   44 2    
    87   43   45 1    
    88   45   46 1    
    89   45   47 1    
    90   45  122 1    
    91   46  123 1    
    92   46  124 1    
    93   46  125 1    
    94   47   48 am   BACKBONE|DICT|INTERRES
    95   47  126 1    
    96   48   49 2    
    97   48   50 1    
    98   50   51 1    
    99   50   52 1    
   100   50  127 1    
   101   51  128 1    
   102   51  129 1    
   103   51  130 1    
   104   52   53 am   BACKBONE|DICT|INTERRES
   105   52  131 1    
   106   53   54 2    
   107   53   55 1    
   108   55   56 1    
   109   55   59 1    
   110   55  132 1    
   111   56   57 1    
   112   56  133 1    
   113   56  134 1    
   114   57   58 1    
   115   58  135 1    
   116   58  136 1    
   117   59   60 am   BACKBONE|DICT|INTERRES
   118   59  137 1    
   119   60   61 2    
   120   60   62 1    
   121   62   63 1    
   122   62   64 1    
   123   62  138 1    
   124   63  139 1    
   125   63  140 1    
   126   63  141 1    
   127   64   65 am   BACKBONE|DICT|INTERRES
   128   64  142 1    
   129   65   66 2    
   130   65   67 1    
   131   67   68 1    
   132   67   69 1    
   133   67  143 1    
   134   68  144 1    
   135   68  145 1    
   136   68  146 1    
   137   69   70 am   BACKBONE|DICT|INTERRES
   138   69  147 1    
   139   70   71 2    
   140   70   72 1    
   141   72   73 1    
   142   72   74 1    
   143   72  148 1    
   144   73  149 1    
   145   73  150 1    
   146   73  151 1    
   147   74   75 am   BACKBONE|DICT|INTERRES
   148   74  152 1    
   149   75   76 2    
   150   75   77 1    
   151   77   78 1    
   152   77   79 1    
   153   77  153 1    
   154   78  154 1    
   155   78  155 1    
   156   78  156 1    
   157   79   80 am   BACKBONE|DICT|INTERRES
   158   79  157 1    
   159   80   81 2    
@<TRIPOS>SUBSTRUCTURE
     1 UNK         1 GROUP             0       ****    0 ROOT    
