@<TRIPOS>MOLECULE
3R207
157   159    1
SMALL
USER_CHARGES


@<TRIPOS>ATOM
      1 CA        -49.5121  -31.8267    4.8617 C.3       0 UNK        -0.1975 
      2 C         -49.9628  -30.5529    5.5609 C.2       0 UNK         0.4852 
      3 O         -51.0299  -30.0271    5.2447 O.2       0 UNK        -0.5216 
      4 N         -49.1517  -30.0478    6.5004 N.am      1 UNK        -0.4461 
      5 CA        -49.4389  -28.8545    7.3096 C.3       1 UNK         0.0864 
      6 C6        -48.6195  -28.8447    8.6280 C.3       14 UNK        -0.0898 
      7 S7        -49.0816  -30.2151    9.7417 S.3       14 UNK        -0.2598 
      8 C8        -50.2512  -29.3996   10.8809 C.3       14 UNK         0.0286 
      9 C9        -51.4914  -28.9026   10.1517 C.ar      14 UNK        -0.0844 
     10 C10       -51.5771  -27.5686    9.7461 C.ar      14 UNK        -0.0881 
     11 C11       -52.6869  -27.1037    9.0352 C.ar      14 UNK        -0.0643 
     12 C12       -53.7217  -27.9954    8.7323 C.ar      14 UNK        -0.0930 
     13 C13       -53.6474  -29.3356    9.1260 C.ar      14 UNK        -0.0827 
     14 C14       -52.5332  -29.7814    9.8435 C.ar      14 UNK        -0.1249 
     15 C15       -54.7427  -30.3164    8.7308 C.3       14 UNK         0.0141 
     16 S16       -55.9797  -30.5358   10.0450 S.3       14 UNK        -0.2313 
     17 C17       -56.9258  -28.9779    9.9120 C.3       14 UNK        -0.0915 
     18 CA        -58.2128  -28.9474   10.7805 C.3       13 UNK         0.0968 
     19 C         -59.3414  -29.8536   10.2113 C.2       13 UNK         0.5732 
     20 N         -60.0057  -29.4153    9.1496 N.am      13 UNK        -0.7310 
     21 O         -59.6060  -30.9518   10.7008 O.2       13 UNK        -0.5035 
     22 N         -57.8926  -29.2215   12.1843 N.am      13 UNK        -0.4233 
     23 C         -58.6837  -28.9884   13.2377 C.2       13 UNK         0.4989 
     24 O         -59.7943  -28.4606   13.1614 O.2       13 UNK        -0.4996 
     25 CA        -58.1381  -29.4031   14.6200 C.3       12 UNK         0.0216 
     26 CB        -58.7990  -30.7110   15.0862 C.3       12 UNK        -0.1964 
     27 N         -56.6775  -29.5621   14.6527 N.am      12 UNK        -0.4276 
     28 C         -55.8042  -28.5529   14.5384 C.2       12 UNK         0.5020 
     29 O         -56.1321  -27.3642   14.4646 O.2       12 UNK        -0.5489 
     30 CA        -54.3220  -28.9369   14.4547 C.3       11 UNK         0.0294 
     31 CB        -54.0006  -29.6180   13.1087 C.3       11 UNK        -0.2019 
     32 N         -53.5406  -27.7141   14.5926 N.am      11 UNK        -0.4493 
     33 C         -52.2423  -27.6274   14.8894 C.2       11 UNK         0.4932 
     34 O         -51.5178  -28.6092   15.0693 O.2       11 UNK        -0.5029 
     35 CA        -51.6666  -26.1990   14.9430 C.3       10 UNK         0.0280 
     36 CB        -52.5257  -25.2297   15.7855 C.3       10 UNK        -0.1976 
     37 N         -50.2623  -26.1592   15.3606 N.am      10 UNK        -0.4242 
     38 C         -49.7457  -26.4634   16.5603 C.2       10 UNK         0.5072 
     39 O         -50.4100  -26.7679   17.5522 O.2       10 UNK        -0.5224 
     40 CA        -48.2171  -26.3964   16.6796 C.3       9 UNK         0.0343 
     41 CB        -47.5663  -27.6481   16.0660 C.3       9 UNK        -0.2003 
     42 N         -47.6870  -25.1970   16.0245 N.am      9 UNK        -0.4272 
     43 C         -47.0461  -24.2058   16.6571 C.2       9 UNK         0.4988 
     44 O         -46.8163  -24.1966   17.8674 O.2       9 UNK        -0.5108 
     45 CA        -46.5560  -23.0237   15.8047 C.3       8 UNK         0.0248 
     46 CB        -45.1658  -23.3180   15.2183 C.3       8 UNK        -0.2001 
     47 N         -47.4679  -22.6371   14.7258 N.am      8 UNK        -0.4140 
     48 C         -48.6507  -22.0323   14.9089 C.2       8 UNK         0.5028 
     49 O         -49.1504  -21.8217   16.0142 O.2       8 UNK        -0.5428 
     50 CA        -49.3895  -21.5569   13.6490 C.3       7 UNK         0.0264 
     51 CB        -48.7553  -20.2655   13.1051 C.3       7 UNK        -0.1988 
     52 N         -49.3721  -22.5823   12.6062 N.am      7 UNK        -0.4454 
     53 C         -50.3857  -23.4247   12.3603 C.2       7 UNK         0.5027 
     54 O         -51.4678  -23.3661   12.9443 O.2       7 UNK        -0.5083 
     55 CA        -50.1569  -24.5365   11.3062 C.3       6 UNK         0.0844 
     56 C56       -50.7594  -24.1542    9.9285 C.3       14 UNK        -0.0967 
     57 S57       -52.5689  -24.4179    9.8507 S.3       14 UNK        -0.2604 
     58 C58       -52.7455  -25.6648    8.5299 C.3       14 UNK         0.0134 
     59 N         -48.7498  -24.9383   11.1833 N.am      6 UNK        -0.4116 
     60 C         -48.0262  -25.4919   12.1693 C.2       5 UNK         0.5034 
     61 O         -48.4847  -25.7769   13.2739 O.2       5 UNK        -0.5045 
     62 CA        -46.5218  -25.7039   11.9236 C.3       5 UNK         0.0224 
     63 CB        -46.2682  -27.1182   11.3795 C.3       5 UNK        -0.1978 
     64 N         -45.9179  -24.7212   11.0190 N.am      5 UNK        -0.4737 
     65 C         -45.9958  -23.3866   11.1283 C.2       4 UNK         0.5027 
     66 O         -46.5065  -22.8140   12.0905 O.2       4 UNK        -0.5211 
     67 CA        -45.4867  -22.5470    9.9416 C.3       4 UNK         0.0297 
     68 CB        -44.1470  -21.8848   10.2988 C.3       4 UNK        -0.1993 
     69 N         -45.3432  -23.2881    8.6801 N.am      4 UNK        -0.4486 
     70 C         -46.3151  -23.9571    8.0423 C.2       3 UNK         0.4961 
     71 O         -47.4808  -24.0327    8.4448 O.2       3 UNK        -0.5105 
     72 CA        -45.8808  -24.7239    6.7873 C.3       3 UNK         0.0299 
     73 CB        -44.9060  -25.8646    7.1503 C.3       3 UNK        -0.1972 
     74 N         -47.0609  -25.2774    6.1339 N.am      3 UNK        -0.4305 
     75 C         -47.1314  -25.7352    4.8806 C.2       2 UNK         0.5006 
     76 O         -46.1922  -25.6909    4.0832 O.2       2 UNK        -0.5106 
     77 CA        -48.4647  -26.3915    4.4719 C.3       2 UNK         0.0296 
     78 CB        -48.4917  -26.8172    2.9915 C.3       2 UNK        -0.2002 
     79 N         -48.7515  -27.5619    5.3062 N.am      2 UNK        -0.4032 
     80 C         -49.2566  -27.5226    6.5476 C.2       1 UNK         0.5000 
     81 O         -49.5526  -26.4673    7.1108 O.2       1 UNK        -0.5238 
     82 H82       -50.2437  -32.6188    5.0194 H         1 UNK         0.0889 
     83 H83       -48.5488  -32.1772    5.2321 H         1 UNK         0.0889 
     84 H84       -49.4213  -31.6551    3.7895 H         1 UNK         0.0889 
     85 H85       -48.2954  -30.5326    6.7299 H         1 UNK         0.3028 
     86 H86       -50.4983  -28.8916    7.5679 H         1 UNK         0.0864 
     87 H87       -47.5521  -28.9202    8.4131 H         1 UNK         0.0720 
     88 H88       -48.7442  -27.9062    9.1704 H         1 UNK         0.0720 
     89 H89       -49.7495  -28.5780   11.3954 H         1 UNK         0.0814 
     90 H90       -50.5442  -30.1083   11.6570 H         1 UNK         0.0814 
     91 H91       -50.7554  -26.9016    9.9491 H         1 UNK         0.1469 
     92 H92       -54.5770  -27.6540    8.1656 H         1 UNK         0.1381 
     93 H93       -52.4649  -30.8190   10.1407 H         1 UNK         0.1206 
     94 H94       -55.2347  -29.9955    7.8114 H         1 UNK         0.0813 
     95 H95       -54.2966  -31.2869    8.5082 H         1 UNK         0.0813 
     96 H96       -56.2680  -28.1630   10.2186 H         1 UNK         0.0638 
     97 H97       -57.1632  -28.7897    8.8635 H         1 UNK         0.0638 
     98 H98       -58.5975  -27.9260   10.7494 H         1 UNK         0.0568 
     99 H99       -59.7970  -28.5202    8.7340 H         1 UNK         0.3450 
    100 H100      -60.7348  -29.9909    8.7582 H         1 UNK         0.3450 
    101 H101      -57.0156  -29.6941   12.3377 H         1 UNK         0.2987 
    102 H102      -58.4081  -28.6134   15.3247 H         1 UNK         0.0766 
    103 H103      -58.4820  -30.9806   16.0939 H         1 UNK         0.0798 
    104 H104      -58.5608  -31.5435   14.4227 H         1 UNK         0.0798 
    105 H105      -59.8855  -30.6132   15.1065 H         1 UNK         0.0798 
    106 H106      -56.3256  -30.5069   14.7218 H         1 UNK         0.3198 
    107 H107      -54.0863  -29.6088   15.2827 H         1 UNK         0.0843 
    108 H108      -54.2353  -28.9685   12.2639 H         1 UNK         0.0831 
    109 H109      -54.5682  -30.5399   12.9803 H         1 UNK         0.0831 
    110 H110      -52.9462  -29.8837   13.0350 H         1 UNK         0.0831 
    111 H111      -54.1000  -26.8743   14.4904 H         1 UNK         0.3133 
    112 H112      -51.6732  -25.8401   13.9144 H         1 UNK         0.0566 
    113 H113      -52.0549  -24.2487   15.8551 H         1 UNK         0.0814 
    114 H114      -53.5079  -25.0752   15.3389 H         1 UNK         0.0814 
    115 H115      -52.6824  -25.5992   16.7992 H         1 UNK         0.0814 
    116 H116      -49.6041  -25.9996   14.5996 H         1 UNK         0.3091 
    117 H117      -47.9781  -26.3883   17.7449 H         1 UNK         0.0702 
    118 H118      -47.9434  -28.5545   16.5416 H         1 UNK         0.0785 
    119 H119      -46.4849  -27.6361   16.2009 H         1 UNK         0.0785 
    120 H120      -47.7689  -27.7338   14.9983 H         1 UNK         0.0785 
    121 H121      -47.8529  -25.1195   15.0274 H         1 UNK         0.2998 
    122 H122      -46.4575  -22.1644   16.4716 H         1 UNK         0.0697 
    123 H123      -45.1864  -24.1605   14.5282 H         1 UNK         0.0825 
    124 H124      -44.4526  -23.5603   16.0073 H         1 UNK         0.0825 
    125 H125      -44.7719  -22.4560   14.6797 H         1 UNK         0.0825 
    126 H126      -47.1134  -22.7320   13.7756 H         1 UNK         0.3029 
    127 H127      -50.4179  -21.3253   13.9356 H         1 UNK         0.0897 
    128 H128      -49.3103  -19.8849   12.2476 H         1 UNK         0.0792 
    129 H129      -47.7213  -20.4169   12.7929 H         1 UNK         0.0792 
    130 H130      -48.7554  -19.4820   13.8640 H         1 UNK         0.0792 
    131 H131      -48.4894  -22.7146   12.1239 H         1 UNK         0.3086 
    132 H132      -50.6846  -25.4168   11.6778 H         1 UNK         0.0583 
    133 H133      -50.5393  -23.1151    9.6752 H         1 UNK         0.1020 
    134 H134      -50.2891  -24.7394    9.1366 H         1 UNK         0.1020 
    135 H135      -53.7016  -25.4834    8.0369 H         1 UNK         0.0694 
    136 H136      -51.9851  -25.5146    7.7631 H         1 UNK         0.0694 
    137 H137      -48.2868  -24.7092   10.3098 H         1 UNK         0.2989 
    138 H138      -46.0220  -25.6148   12.8892 H         1 UNK         0.1055 
    139 H139      -46.7198  -27.8744   12.0238 H         1 UNK         0.0806 
    140 H140      -45.2016  -27.3375   11.3268 H         1 UNK         0.0806 
    141 H141      -46.6864  -27.2483   10.3812 H         1 UNK         0.0806 
    142 H142      -45.4720  -25.0884   10.1917 H         1 UNK         0.3061 
    143 H143      -46.2243  -21.7597    9.7735 H         1 UNK         0.0734 
    144 H144      -43.8196  -21.1998    9.5164 H         1 UNK         0.0832 
    145 H145      -44.2318  -21.3035   11.2184 H         1 UNK         0.0832 
    146 H146      -43.3593  -22.6233   10.4530 H         1 UNK         0.0832 
    147 H147      -44.4186  -23.2914    8.2725 H         1 UNK         0.3156 
    148 H148      -45.3945  -24.0201    6.1087 H         1 UNK         0.0589 
    149 H149      -45.3657  -26.5841    7.8294 H         1 UNK         0.0808 
    150 H150      -44.5803  -26.4090    6.2638 H         1 UNK         0.0808 
    151 H151      -44.0047  -25.4866    7.6336 H         1 UNK         0.0808 
    152 H152      -47.8892  -25.3286    6.7245 H         1 UNK         0.3098 
    153 H153      -49.2518  -25.6484    4.6177 H         1 UNK         0.0720 
    154 H154      -49.4612  -27.2336    2.7172 H         1 UNK         0.0791 
    155 H155      -47.7302  -27.5663    2.7706 H         1 UNK         0.0791 
    156 H156      -48.3105  -25.9639    2.3366 H         1 UNK         0.0791 
    157 H157      -48.5056  -28.4632    4.9244 H         1 UNK         0.3028 
@<TRIPOS>BOND
     1    1    2 1    
     2    1   82 1    
     3    1   83 1    
     4    1   84 1    
     5    2    3 2    
     6    2    4 am   BACKBONE|DICT|INTERRES
     7    4    5 1    
     8    4   85 1    
     9    5    6 1    
    10    5   80 1    
    11    5   86 1    
    12    6    7 1    
    13    6   87 1    
    14    6   88 1    
    15    7    8 1    
    16    8    9 1    
    17    8   89 1    
    18    8   90 1    
    19    9   10 ar   
    20    9   14 ar   
    21   10   11 ar   
    22   10   91 1    
    23   11   12 ar   
    24   11   58 1    
    25   12   13 ar   
    26   12   92 1    
    27   13   14 ar   
    28   13   15 1    
    29   14   93 1    
    30   15   16 1    
    31   15   94 1    
    32   15   95 1    
    33   16   17 1    
    34   17   18 1    
    35   17   96 1    
    36   17   97 1    
    37   18   19 1    
    38   18   22 1    
    39   18   98 1    
    40   19   20 am   BACKBONE|DICT|INTERRES
    41   19   21 2    
    42   20   99 1    
    43   20  100 1    
    44   22   23 am   BACKBONE|DICT|INTERRES
    45   22  101 1    
    46   23   24 2    
    47   23   25 1    
    48   25   26 1    
    49   25   27 1    
    50   25  102 1    
    51   26  103 1    
    52   26  104 1    
    53   26  105 1    
    54   27   28 am   BACKBONE|DICT|INTERRES
    55   27  106 1    
    56   28   29 2    
    57   28   30 1    
    58   30   31 1    
    59   30   32 1    
    60   30  107 1    
    61   31  108 1    
    62   31  109 1    
    63   31  110 1    
    64   32   33 am   BACKBONE|DICT|INTERRES
    65   32  111 1    
    66   33   34 2    
    67   33   35 1    
    68   35   36 1    
    69   35   37 1    
    70   35  112 1    
    71   36  113 1    
    72   36  114 1    
    73   36  115 1    
    74   37   38 am   BACKBONE|DICT|INTERRES
    75   37  116 1    
    76   38   39 2    
    77   38   40 1    
    78   40   41 1    
    79   40   42 1    
    80   40  117 1    
    81   41  118 1    
    82   41  119 1    
    83   41  120 1    
    84   42   43 am   BACKBONE|DICT|INTERRES
    85   42  121 1    
    86   43   44 2    
    87   43   45 1    
    88   45   46 1    
    89   45   47 1    
    90   45  122 1    
    91   46  123 1    
    92   46  124 1    
    93   46  125 1    
    94   47   48 am   BACKBONE|DICT|INTERRES
    95   47  126 1    
    96   48   49 2    
    97   48   50 1    
    98   50   51 1    
    99   50   52 1    
   100   50  127 1    
   101   51  128 1    
   102   51  129 1    
   103   51  130 1    
   104   52   53 am   BACKBONE|DICT|INTERRES
   105   52  131 1    
   106   53   54 2    
   107   53   55 1    
   108   55   56 1    
   109   55   59 1    
   110   55  132 1    
   111   56   57 1    
   112   56  133 1    
   113   56  134 1    
   114   57   58 1    
   115   58  135 1    
   116   58  136 1    
   117   59   60 am   BACKBONE|DICT|INTERRES
   118   59  137 1    
   119   60   61 2    
   120   60   62 1    
   121   62   63 1    
   122   62   64 1    
   123   62  138 1    
   124   63  139 1    
   125   63  140 1    
   126   63  141 1    
   127   64   65 am   BACKBONE|DICT|INTERRES
   128   64  142 1    
   129   65   66 2    
   130   65   67 1    
   131   67   68 1    
   132   67   69 1    
   133   67  143 1    
   134   68  144 1    
   135   68  145 1    
   136   68  146 1    
   137   69   70 am   BACKBONE|DICT|INTERRES
   138   69  147 1    
   139   70   71 2    
   140   70   72 1    
   141   72   73 1    
   142   72   74 1    
   143   72  148 1    
   144   73  149 1    
   145   73  150 1    
   146   73  151 1    
   147   74   75 am   BACKBONE|DICT|INTERRES
   148   74  152 1    
   149   75   76 2    
   150   75   77 1    
   151   77   78 1    
   152   77   79 1    
   153   77  153 1    
   154   78  154 1    
   155   78  155 1    
   156   78  156 1    
   157   79   80 am   BACKBONE|DICT|INTERRES
   158   79  157 1    
   159   80   81 2    
@<TRIPOS>SUBSTRUCTURE
     1 UNK         1 GROUP             0       ****    0 ROOT    
