@<TRIPOS>MOLECULE
3R207
157   159    1
SMALL
USER_CHARGES


@<TRIPOS>ATOM
      1 CA        -50.8896  -22.7690    8.4163 C.3       0 UNK        -0.1975 
      2 C         -50.5545  -24.2058    8.0478 C.2       0 UNK         0.4852 
      3 O         -49.8483  -24.8770    8.7996 O.2       0 UNK        -0.5216 
      4 N         -51.0757  -24.6979    6.9180 N.am      1 UNK        -0.4461 
      5 CA        -50.7448  -26.0183    6.3793 C.3       1 UNK         0.0864 
      6 C6        -51.8497  -26.5758    5.4457 C.3       14 UNK        -0.0898 
      7 S7        -53.4610  -26.7865    6.2810 S.3       14 UNK        -0.2598 
      8 C8        -53.5672  -28.5943    6.4983 C.3       14 UNK         0.0286 
      9 C9        -52.7976  -29.0635    7.7245 C.ar      14 UNK        -0.0844 
     10 C10       -51.4296  -29.3333    7.6375 C.ar      14 UNK        -0.0881 
     11 C11       -50.7092  -29.7259    8.7686 C.ar      14 UNK        -0.0643 
     12 C12       -51.3727  -29.8867    9.9874 C.ar      14 UNK        -0.0930 
     13 C13       -52.7440  -29.6344   10.0846 C.ar      14 UNK        -0.0827 
     14 C14       -53.4516  -29.2214    8.9511 C.ar      14 UNK        -0.1249 
     15 C15       -53.4478  -29.7608   11.4256 C.3       14 UNK         0.0141 
     16 S16       -54.4198  -31.2907   11.5398 S.3       14 UNK        -0.2313 
     17 C17       -54.8226  -31.3160   13.3190 C.3       14 UNK        -0.0915 
     18 CA        -56.1663  -30.6144   13.6536 C.3       13 UNK         0.0968 
     19 C         -56.6598  -30.9823   15.0846 C.2       13 UNK         0.5732 
     20 N         -56.9049  -30.0384   15.9866 N.am      13 UNK        -0.7310 
     21 O         -56.8422  -32.1606   15.3824 O.2       13 UNK        -0.5035 
     22 N         -56.0926  -29.1660   13.4101 N.am      13 UNK        -0.4233 
     23 C         -57.1300  -28.3995   13.0517 C.2       13 UNK         0.4989 
     24 O         -58.2476  -28.8492   12.7900 O.2       13 UNK        -0.4996 
     25 CA        -56.8829  -26.8762   12.9727 C.3       12 UNK         0.0216 
     26 CB        -58.1840  -26.0578   13.1118 C.3       12 UNK        -0.1964 
     27 N         -55.8715  -26.3797   13.9151 N.am      12 UNK        -0.4276 
     28 C         -55.8540  -26.5266   15.2473 C.2       12 UNK         0.5020 
     29 O         -56.7107  -27.1346   15.8930 O.2       12 UNK        -0.5489 
     30 CA        -54.6371  -25.9259   15.9722 C.3       11 UNK         0.0294 
     31 CB        -55.0536  -25.2516   17.2911 C.3       11 UNK        -0.2019 
     32 N         -53.5580  -26.8810   16.2532 N.am      11 UNK        -0.4493 
     33 C         -53.0779  -27.8638   15.4756 C.2       11 UNK         0.4932 
     34 O         -53.5496  -28.2100   14.3916 O.2       11 UNK        -0.5029 
     35 CA        -51.7820  -28.5081   15.9827 C.3       10 UNK         0.0280 
     36 CB        -51.4621  -29.8470   15.2934 C.3       10 UNK        -0.1976 
     37 N         -50.7094  -27.5562   15.7109 N.am      10 UNK        -0.4242 
     38 C         -50.1779  -26.7213   16.6127 C.2       10 UNK         0.5072 
     39 O         -50.4253  -26.7645   17.8187 O.2       10 UNK        -0.5224 
     40 CA        -49.2571  -25.6155   16.0692 C.3       9 UNK         0.0343 
     41 CB        -47.9167  -26.1956   15.5898 C.3       9 UNK        -0.2003 
     42 N         -49.8811  -24.8481   14.9874 N.am      9 UNK        -0.4272 
     43 C         -50.9838  -24.0912   15.1150 C.2       9 UNK         0.4988 
     44 O         -51.5823  -23.9176   16.1765 O.2       9 UNK        -0.5108 
     45 CA        -51.5203  -23.4242   13.8400 C.3       8 UNK         0.0248 
     46 CB        -50.7397  -22.1391   13.5187 C.3       8 UNK        -0.2001 
     47 N         -51.4467  -24.3502   12.7109 N.am      8 UNK        -0.4140 
     48 C         -52.4252  -25.2024   12.3751 C.2       8 UNK         0.5028 
     49 O         -53.5521  -25.1829   12.8715 O.2       8 UNK        -0.5428 
     50 CA        -52.1173  -26.2558   11.3011 C.3       7 UNK         0.0264 
     51 CB        -52.8551  -25.9213    9.9970 C.3       7 UNK        -0.1988 
     52 N         -50.6835  -26.4357   11.0446 N.am      7 UNK        -0.4454 
     53 C         -49.8706  -27.1205   11.8634 C.2       7 UNK         0.5027 
     54 O         -50.2527  -27.6520   12.9058 O.2       7 UNK        -0.5083 
     55 CA        -48.3676  -27.1787   11.5235 C.3       6 UNK         0.0844 
     56 C56       -47.9779  -28.4683   10.7583 C.3       14 UNK        -0.0967 
     57 S57       -48.2957  -28.4102    8.9592 S.3       14 UNK        -0.2604 
     58 C58       -49.2116  -29.9552    8.6678 C.3       14 UNK         0.0134 
     59 N         -47.8491  -25.9666   10.8887 N.am      6 UNK        -0.4116 
     60 C         -47.8906  -24.7310   11.4031 C.2       5 UNK         0.5034 
     61 O         -48.4270  -24.4599   12.4803 O.2       5 UNK        -0.5045 
     62 CA        -47.2287  -23.6275   10.5566 C.3       5 UNK         0.0224 
     63 CB        -47.0188  -22.3092   11.3312 C.3       5 UNK        -0.1978 
     64 N         -45.9869  -24.0866    9.9179 N.am      5 UNK        -0.4737 
     65 C         -44.8441  -24.4517   10.5235 C.2       4 UNK         0.5027 
     66 O         -44.6681  -24.3965   11.7407 O.2       4 UNK        -0.5211 
     67 CA        -43.7017  -25.0020    9.6421 C.3       4 UNK         0.0297 
     68 CB        -43.4864  -26.4988    9.9264 C.3       4 UNK        -0.1993 
     69 N         -43.9184  -24.8296    8.2039 N.am      4 UNK        -0.4486 
     70 C         -43.8745  -23.6671    7.5389 C.2       3 UNK         0.4961 
     71 O         -43.5229  -22.6026    8.0476 O.2       3 UNK        -0.5105 
     72 CA        -44.3269  -23.6852    6.0630 C.3       3 UNK         0.0299 
     73 CB        -43.1076  -23.6032    5.1298 C.3       3 UNK        -0.1972 
     74 N         -45.1510  -24.8412    5.6750 N.am      3 UNK        -0.4305 
     75 C         -46.3253  -25.1854    6.2238 C.2       2 UNK         0.5006 
     76 O         -46.8386  -24.5793    7.1675 O.2       2 UNK        -0.5106 
     77 CA        -46.9860  -26.4598    5.6677 C.3       2 UNK         0.0296 
     78 CB        -46.1906  -27.7082    6.0896 C.3       2 UNK        -0.2002 
     79 N         -48.3661  -26.5908    6.1411 N.am      2 UNK        -0.4032 
     80 C         -49.3988  -25.9021    5.6396 C.2       1 UNK         0.5000 
     81 O         -49.3210  -25.1797    4.6414 O.2       1 UNK        -0.5238 
     82 H82       -51.6254  -22.3363    7.7389 H         1 UNK         0.0889 
     83 H83       -49.9894  -22.1561    8.3804 H         1 UNK         0.0889 
     84 H84       -51.2917  -22.7247    9.4282 H         1 UNK         0.0889 
     85 H85       -51.6482  -24.1136    6.3262 H         1 UNK         0.3028 
     86 H86       -50.6288  -26.7145    7.2123 H         1 UNK         0.0864 
     87 H87       -51.5403  -27.5295    5.0153 H         1 UNK         0.0720 
     88 H88       -52.0051  -25.9057    4.5980 H         1 UNK         0.0720 
     89 H89       -53.2108  -29.1054    5.6028 H         1 UNK         0.0814 
     90 H90       -54.6185  -28.8685    6.5987 H         1 UNK         0.0814 
     91 H91       -50.9177  -29.2149    6.6929 H         1 UNK         0.1469 
     92 H92       -50.8181  -30.1874   10.8654 H         1 UNK         0.1381 
     93 H93       -54.5093  -29.0099    9.0293 H         1 UNK         0.1206 
     94 H94       -54.1081  -28.9056   11.5679 H         1 UNK         0.0813 
     95 H95       -52.7190  -29.7263   12.2361 H         1 UNK         0.0813 
     96 H96       -54.0047  -30.8783   13.8913 H         1 UNK         0.0638 
     97 H97       -54.8571  -32.3682   13.6073 H         1 UNK         0.0638 
     98 H98       -56.9181  -31.0325   12.9818 H         1 UNK         0.0568 
     99 H99       -57.2305  -30.3124   16.8992 H         1 UNK         0.3450 
    100 H100      -56.7899  -29.0512   15.7744 H         1 UNK         0.3450 
    101 H101      -55.2133  -28.7216   13.6645 H         1 UNK         0.2987 
    102 H102      -56.4794  -26.6912   11.9761 H         1 UNK         0.0766 
    103 H103      -57.9912  -24.9886   13.0243 H         1 UNK         0.0798 
    104 H104      -58.6684  -26.2338   14.0731 H         1 UNK         0.0798 
    105 H105      -58.9005  -26.3199   12.3323 H         1 UNK         0.0798 
    106 H106      -55.0594  -25.9254   13.4904 H         1 UNK         0.3198 
    107 H107      -54.2134  -25.1463   15.3384 H         1 UNK         0.0843 
    108 H108      -55.4066  -25.9796   18.0227 H         1 UNK         0.0831 
    109 H109      -55.8615  -24.5373   17.1264 H         1 UNK         0.0831 
    110 H110      -54.2234  -24.7017   17.7351 H         1 UNK         0.0831 
    111 H111      -53.0435  -26.6971   17.1033 H         1 UNK         0.3133 
    112 H112      -51.8821  -28.6962   17.0537 H         1 UNK         0.0566 
    113 H113      -50.5295  -30.2686   15.6678 H         1 UNK         0.0814 
    114 H114      -52.2476  -30.5783   15.4843 H         1 UNK         0.0814 
    115 H115      -51.3657  -29.7392   14.2130 H         1 UNK         0.0814 
    116 H116      -50.4774  -27.4402   14.7252 H         1 UNK         0.3091 
    117 H117      -49.0514  -24.9208   16.8862 H         1 UNK         0.0702 
    118 H118      -47.2527  -25.4126   15.2226 H         1 UNK         0.0785 
    119 H119      -48.0528  -26.9216   14.7888 H         1 UNK         0.0785 
    120 H120      -47.4005  -26.7045   16.4048 H         1 UNK         0.0785 
    121 H121      -49.4124  -24.8691   14.0864 H         1 UNK         0.2998 
    122 H122      -52.5613  -23.1447   14.0170 H         1 UNK         0.0697 
    123 H123      -49.6734  -22.3264   13.3944 H         1 UNK         0.0825 
    124 H124      -50.8470  -21.4113   14.3240 H         1 UNK         0.0825 
    125 H125      -51.1067  -21.6693   12.6061 H         1 UNK         0.0825 
    126 H126      -50.5432  -24.4483   12.2642 H         1 UNK         0.3029 
    127 H127      -52.5065  -27.2019   11.6752 H         1 UNK         0.0897 
    128 H128      -53.9249  -26.1036   10.1036 H         1 UNK         0.0792 
    129 H129      -52.5018  -26.5336    9.1684 H         1 UNK         0.0792 
    130 H130      -52.7367  -24.8751    9.7190 H         1 UNK         0.0792 
    131 H131      -50.2980  -25.9917   10.2116 H         1 UNK         0.3086 
    132 H132      -47.8579  -27.2347   12.4866 H         1 UNK         0.0583 
    133 H133      -46.9082  -28.6429   10.8841 H         1 UNK         0.1020 
    134 H134      -48.4597  -29.3398   11.2051 H         1 UNK         0.1020 
    135 H135      -48.9628  -30.3228    7.6710 H         1 UNK         0.0694 
    136 H136      -48.8883  -30.7319    9.3623 H         1 UNK         0.0694 
    137 H137      -47.4544  -26.0859    9.9674 H         1 UNK         0.2989 
    138 H138      -47.9201  -23.4138    9.7411 H         1 UNK         0.1055 
    139 H139      -47.9741  -21.8892   11.6470 H         1 UNK         0.0806 
    140 H140      -46.5251  -21.5597   10.7128 H         1 UNK         0.0806 
    141 H141      -46.4175  -22.4549   12.2290 H         1 UNK         0.0806 
    142 H142      -46.0508  -24.1997    8.9087 H         1 UNK         0.3061 
    143 H143      -42.7920  -24.4639    9.9169 H         1 UNK         0.0734 
    144 H144      -42.6414  -26.8942    9.3624 H         1 UNK         0.0832 
    145 H145      -43.2741  -26.6697   10.9828 H         1 UNK         0.0832 
    146 H146      -44.3679  -27.0896    9.6733 H         1 UNK         0.0832 
    147 H147      -44.2082  -25.6485    7.6908 H         1 UNK         0.3156 
    148 H148      -44.9343  -22.7912    5.9079 H         1 UNK         0.0589 
    149 H149      -42.4738  -24.4868    5.2153 H         1 UNK         0.0808 
    150 H150      -43.4096  -23.5040    4.0870 H         1 UNK         0.0808 
    151 H151      -42.4900  -22.7358    5.3681 H         1 UNK         0.0808 
    152 H152      -44.7947  -25.4050    4.9160 H         1 UNK         0.3098 
    153 H153      -46.9915  -26.4006    4.5772 H         1 UNK         0.0720 
    154 H154      -46.6960  -28.6244    5.7829 H         1 UNK         0.0791 
    155 H155      -46.0452  -27.7527    7.1693 H         1 UNK         0.0791 
    156 H156      -45.2017  -27.7206    5.6301 H         1 UNK         0.0791 
    157 H157      -48.4936  -27.1010    7.0058 H         1 UNK         0.3028 
@<TRIPOS>BOND
     1    1    2 1    
     2    1   82 1    
     3    1   83 1    
     4    1   84 1    
     5    2    3 2    
     6    2    4 am   BACKBONE|DICT|INTERRES
     7    4    5 1    
     8    4   85 1    
     9    5    6 1    
    10    5   80 1    
    11    5   86 1    
    12    6    7 1    
    13    6   87 1    
    14    6   88 1    
    15    7    8 1    
    16    8    9 1    
    17    8   89 1    
    18    8   90 1    
    19    9   10 ar   
    20    9   14 ar   
    21   10   11 ar   
    22   10   91 1    
    23   11   12 ar   
    24   11   58 1    
    25   12   13 ar   
    26   12   92 1    
    27   13   14 ar   
    28   13   15 1    
    29   14   93 1    
    30   15   16 1    
    31   15   94 1    
    32   15   95 1    
    33   16   17 1    
    34   17   18 1    
    35   17   96 1    
    36   17   97 1    
    37   18   19 1    
    38   18   22 1    
    39   18   98 1    
    40   19   20 am   BACKBONE|DICT|INTERRES
    41   19   21 2    
    42   20   99 1    
    43   20  100 1    
    44   22   23 am   BACKBONE|DICT|INTERRES
    45   22  101 1    
    46   23   24 2    
    47   23   25 1    
    48   25   26 1    
    49   25   27 1    
    50   25  102 1    
    51   26  103 1    
    52   26  104 1    
    53   26  105 1    
    54   27   28 am   BACKBONE|DICT|INTERRES
    55   27  106 1    
    56   28   29 2    
    57   28   30 1    
    58   30   31 1    
    59   30   32 1    
    60   30  107 1    
    61   31  108 1    
    62   31  109 1    
    63   31  110 1    
    64   32   33 am   BACKBONE|DICT|INTERRES
    65   32  111 1    
    66   33   34 2    
    67   33   35 1    
    68   35   36 1    
    69   35   37 1    
    70   35  112 1    
    71   36  113 1    
    72   36  114 1    
    73   36  115 1    
    74   37   38 am   BACKBONE|DICT|INTERRES
    75   37  116 1    
    76   38   39 2    
    77   38   40 1    
    78   40   41 1    
    79   40   42 1    
    80   40  117 1    
    81   41  118 1    
    82   41  119 1    
    83   41  120 1    
    84   42   43 am   BACKBONE|DICT|INTERRES
    85   42  121 1    
    86   43   44 2    
    87   43   45 1    
    88   45   46 1    
    89   45   47 1    
    90   45  122 1    
    91   46  123 1    
    92   46  124 1    
    93   46  125 1    
    94   47   48 am   BACKBONE|DICT|INTERRES
    95   47  126 1    
    96   48   49 2    
    97   48   50 1    
    98   50   51 1    
    99   50   52 1    
   100   50  127 1    
   101   51  128 1    
   102   51  129 1    
   103   51  130 1    
   104   52   53 am   BACKBONE|DICT|INTERRES
   105   52  131 1    
   106   53   54 2    
   107   53   55 1    
   108   55   56 1    
   109   55   59 1    
   110   55  132 1    
   111   56   57 1    
   112   56  133 1    
   113   56  134 1    
   114   57   58 1    
   115   58  135 1    
   116   58  136 1    
   117   59   60 am   BACKBONE|DICT|INTERRES
   118   59  137 1    
   119   60   61 2    
   120   60   62 1    
   121   62   63 1    
   122   62   64 1    
   123   62  138 1    
   124   63  139 1    
   125   63  140 1    
   126   63  141 1    
   127   64   65 am   BACKBONE|DICT|INTERRES
   128   64  142 1    
   129   65   66 2    
   130   65   67 1    
   131   67   68 1    
   132   67   69 1    
   133   67  143 1    
   134   68  144 1    
   135   68  145 1    
   136   68  146 1    
   137   69   70 am   BACKBONE|DICT|INTERRES
   138   69  147 1    
   139   70   71 2    
   140   70   72 1    
   141   72   73 1    
   142   72   74 1    
   143   72  148 1    
   144   73  149 1    
   145   73  150 1    
   146   73  151 1    
   147   74   75 am   BACKBONE|DICT|INTERRES
   148   74  152 1    
   149   75   76 2    
   150   75   77 1    
   151   77   78 1    
   152   77   79 1    
   153   77  153 1    
   154   78  154 1    
   155   78  155 1    
   156   78  156 1    
   157   79   80 am   BACKBONE|DICT|INTERRES
   158   79  157 1    
   159   80   81 2    
@<TRIPOS>SUBSTRUCTURE
     1 UNK         1 GROUP             0       ****    0 ROOT    
