@<TRIPOS>MOLECULE
3R207
157   159    1
SMALL
USER_CHARGES


@<TRIPOS>ATOM
      1 CA        -47.4883  -30.1653    7.5725 C.3       0 UNK        -0.1975 
      2 C         -47.7834  -28.7803    7.0188 C.2       0 UNK         0.4852 
      3 O         -47.5982  -27.7897    7.7267 O.2       0 UNK        -0.5216 
      4 N         -48.2330  -28.7041    5.7567 N.am      1 UNK        -0.4461 
      5 CA        -48.6281  -27.4757    5.0496 C.3       1 UNK         0.0864 
      6 C6        -49.9518  -26.8734    5.5987 C.3       14 UNK        -0.0898 
      7 S7        -51.3815  -27.9203    5.1560 S.3       14 UNK        -0.2598 
      8 C8        -51.6699  -28.8800    6.6860 C.3       14 UNK         0.0286 
      9 C9        -52.3765  -28.1478    7.8292 C.ar      14 UNK        -0.0844 
     10 C10       -52.8868  -26.8485    7.7095 C.ar      14 UNK        -0.0881 
     11 C11       -53.5235  -26.2252    8.7870 C.ar      14 UNK        -0.0643 
     12 C12       -53.6744  -26.9178    9.9903 C.ar      14 UNK        -0.0930 
     13 C13       -53.1651  -28.2106   10.1305 C.ar      14 UNK        -0.0827 
     14 C14       -52.5240  -28.8186    9.0476 C.ar      14 UNK        -0.1249 
     15 C15       -53.2820  -28.9425   11.4575 C.3       14 UNK         0.0141 
     16 S16       -54.5925  -30.2006   11.4052 S.3       14 UNK        -0.2313 
     17 C17       -54.4181  -30.9592   13.0552 C.3       14 UNK        -0.0915 
     18 CA        -55.7754  -31.0633   13.7969 C.3       13 UNK         0.0968 
     19 C         -55.6403  -31.8951   15.1006 C.2       13 UNK         0.5732 
     20 N         -55.6227  -33.2165   14.9899 N.am      13 UNK        -0.7310 
     21 O         -55.5231  -31.3630   16.2038 O.2       13 UNK        -0.5035 
     22 N         -56.3613  -29.7416   14.0570 N.am      13 UNK        -0.4233 
     23 C         -57.6746  -29.5164   14.2003 C.2       13 UNK         0.4989 
     24 O         -58.5315  -30.3865   14.0349 O.2       13 UNK        -0.4996 
     25 CA        -58.1384  -28.1025   14.6083 C.3       12 UNK         0.0216 
     26 CB        -58.7989  -28.1324   15.9978 C.3       12 UNK        -0.1964 
     27 N         -57.0687  -27.1041   14.6225 N.am      12 UNK        -0.4276 
     28 C         -56.5102  -26.5442   13.5418 C.2       12 UNK         0.5020 
     29 O         -56.8936  -26.7444   12.3895 O.2       12 UNK        -0.5489 
     30 CA        -55.3104  -25.6091   13.7875 C.3       11 UNK         0.0294 
     31 CB        -55.7557  -24.1409   13.6944 C.3       11 UNK        -0.2019 
     32 N         -54.6101  -25.8238   15.0622 N.am      11 UNK        -0.4493 
     33 C         -54.0022  -26.9616   15.4250 C.2       11 UNK         0.4932 
     34 O         -54.0438  -28.0026   14.7690 O.2       11 UNK        -0.5029 
     35 CA        -53.2450  -26.9512   16.7611 C.3       10 UNK         0.0280 
     36 CB        -53.8955  -27.9211   17.7621 C.3       10 UNK        -0.1976 
     37 N         -51.8472  -27.3285   16.5497 N.am      10 UNK        -0.4242 
     38 C         -50.9548  -26.5571   15.9156 C.2       10 UNK         0.5072 
     39 O         -51.1903  -25.3989   15.5583 O.2       10 UNK        -0.5224 
     40 CA        -49.5710  -27.1739   15.6549 C.3       9 UNK         0.0343 
     41 CB        -49.6525  -28.4789   14.8381 C.3       9 UNK        -0.2003 
     42 N         -48.7695  -26.1946   14.9293 N.am      9 UNK        -0.4272 
     43 C         -47.4686  -25.9456   15.1076 C.2       9 UNK         0.4988 
     44 O         -46.7422  -26.6113   15.8469 O.2       9 UNK        -0.5108 
     45 CA        -46.8634  -24.7517   14.3429 C.3       8 UNK         0.0248 
     46 CB        -45.9062  -25.2365   13.2407 C.3       8 UNK        -0.2001 
     47 N         -47.8640  -23.8539   13.7538 N.am      8 UNK        -0.4140 
     48 C         -48.6088  -22.9792   14.4476 C.2       8 UNK         0.5028 
     49 O         -48.5146  -22.8240   15.6656 O.2       8 UNK        -0.5428 
     50 CA        -49.6271  -22.1340   13.6668 C.3       7 UNK         0.0264 
     51 CB        -48.9591  -20.8590   13.1252 C.3       7 UNK        -0.1988 
     52 N         -50.2141  -22.8770   12.5498 N.am      7 UNK        -0.4454 
     53 C         -51.5196  -23.1524   12.4016 C.2       7 UNK         0.5027 
     54 O         -52.3914  -22.7828   13.1882 O.2       7 UNK        -0.5083 
     55 CA        -51.9362  -23.9409   11.1363 C.3       6 UNK         0.0844 
     56 C56       -52.3895  -22.9376   10.0416 C.3       14 UNK        -0.0967 
     57 S57       -52.6733  -23.6288    8.3760 S.3       14 UNK        -0.2604 
     58 C58       -54.0414  -24.8023    8.6385 C.3       14 UNK         0.0134 
     59 N         -50.8854  -24.8543   10.6762 N.am      6 UNK        -0.4116 
     60 C         -50.4045  -25.8893   11.3795 C.2       5 UNK         0.5034 
     61 O         -50.9057  -26.2825   12.4302 O.2       5 UNK        -0.5045 
     62 CA        -49.1116  -26.5670   10.8804 C.3       5 UNK         0.0224 
     63 CB        -49.3906  -27.9925   10.3845 C.3       5 UNK        -0.1978 
     64 N         -48.3555  -25.8351    9.8524 N.am      5 UNK        -0.4737 
     65 C         -47.8847  -24.5838    9.9662 C.2       4 UNK         0.5027 
     66 O         -48.0562  -23.8852   10.9676 O.2       4 UNK        -0.5211 
     67 CA        -47.1378  -24.0150    8.7496 C.3       4 UNK         0.0297 
     68 CB        -46.4984  -22.6365    9.0217 C.3       4 UNK        -0.1993 
     69 N         -46.1615  -24.9622    8.2084 N.am      4 UNK        -0.4486 
     70 C         -45.0613  -25.4411    8.8126 C.2       3 UNK         0.4961 
     71 O         -44.6882  -25.0988    9.9348 O.2       3 UNK        -0.5105 
     72 CA        -44.2251  -26.4859    8.0469 C.3       3 UNK         0.0299 
     73 CB        -44.2378  -27.8365    8.7838 C.3       3 UNK        -0.1972 
     74 N         -44.6812  -26.6855    6.6689 N.am      3 UNK        -0.4305 
     75 C         -44.3862  -25.8777    5.6400 C.2       2 UNK         0.5006 
     76 O         -43.6134  -24.9225    5.7209 O.2       2 UNK        -0.5106 
     77 CA        -45.0811  -26.1658    4.2954 C.3       2 UNK         0.0296 
     78 CB        -44.1291  -26.9175    3.3505 C.3       2 UNK        -0.2002 
     79 N         -46.3334  -26.9211    4.4184 N.am      2 UNK        -0.4032 
     80 C         -47.4589  -26.4671    4.9916 C.2       1 UNK         0.5000 
     81 O         -47.5606  -25.3493    5.5021 O.2       1 UNK        -0.5238 
     82 H82       -48.1087  -30.3566    8.4474 H         1 UNK         0.0889 
     83 H83       -46.4436  -30.2354    7.8733 H         1 UNK         0.0889 
     84 H84       -47.6844  -30.9482    6.8403 H         1 UNK         0.0889 
     85 H85       -48.3525  -29.5575    5.2285 H         1 UNK         0.3028 
     86 H86       -48.8058  -27.7600    4.0108 H         1 UNK         0.0864 
     87 H87       -50.1375  -25.8895    5.1642 H         1 UNK         0.0720 
     88 H88       -49.9085  -26.7235    6.6790 H         1 UNK         0.0720 
     89 H89       -52.2737  -29.7488    6.4209 H         1 UNK         0.0814 
     90 H90       -50.7183  -29.2713    7.0452 H         1 UNK         0.0814 
     91 H91       -52.7871  -26.2997    6.7845 H         1 UNK         0.1469 
     92 H92       -54.1764  -26.4469   10.8225 H         1 UNK         0.1381 
     93 H93       -52.1333  -29.8211    9.1588 H         1 UNK         0.1206 
     94 H94       -52.3298  -29.4167   11.6991 H         1 UNK         0.0813 
     95 H95       -53.4863  -28.2354   12.2616 H         1 UNK         0.0813 
     96 H96       -53.9835  -31.9495   12.9088 H         1 UNK         0.0638 
     97 H97       -53.6974  -30.3982   13.6524 H         1 UNK         0.0638 
     98 H98       -56.4584  -31.6101   13.1433 H         1 UNK         0.0568 
     99 H99       -55.7099  -33.6669   14.0922 H         1 UNK         0.3450 
    100 H100      -55.5250  -33.7753   15.8231 H         1 UNK         0.3450 
    101 H101      -55.6962  -29.0002   14.2492 H         1 UNK         0.2987 
    102 H102      -58.8890  -27.7887   13.8798 H         1 UNK         0.0766 
    103 H103      -59.6401  -28.8268   16.0174 H         1 UNK         0.0798 
    104 H104      -59.1870  -27.1521   16.2756 H         1 UNK         0.0798 
    105 H105      -58.0978  -28.4497   16.7711 H         1 UNK         0.0798 
    106 H106      -56.6790  -26.8695   15.5236 H         1 UNK         0.3198 
    107 H107      -54.5860  -25.7974   12.9937 H         1 UNK         0.0843 
    108 H108      -56.2308  -23.9376   12.7335 H         1 UNK         0.0831 
    109 H109      -54.9096  -23.4601   13.7834 H         1 UNK         0.0831 
    110 H110      -56.4751  -23.8868   14.4739 H         1 UNK         0.0831 
    111 H111      -54.5108  -25.0157   15.6607 H         1 UNK         0.3133 
    112 H112      -53.2735  -25.9467   17.1889 H         1 UNK         0.0566 
    113 H113      -53.3760  -27.9114   18.7204 H         1 UNK         0.0814 
    114 H114      -53.8975  -28.9474   17.3908 H         1 UNK         0.0814 
    115 H115      -54.9331  -27.6450   17.9542 H         1 UNK         0.0814 
    116 H116      -51.5922  -28.2748   16.7910 H         1 UNK         0.3091 
    117 H117      -49.1139  -27.3789   16.6251 H         1 UNK         0.0702 
    118 H118      -48.6588  -28.8540   14.5926 H         1 UNK         0.0785 
    119 H119      -50.1946  -28.3376   13.9029 H         1 UNK         0.0785 
    120 H120      -50.1626  -29.2658   15.3940 H         1 UNK         0.0785 
    121 H121      -49.3210  -25.5564   14.3685 H         1 UNK         0.2998 
    122 H122      -46.2778  -24.1761   15.0627 H         1 UNK         0.0697 
    123 H123      -46.4158  -25.8403   12.4908 H         1 UNK         0.0825 
    124 H124      -45.1057  -25.8482   13.6587 H         1 UNK         0.0825 
    125 H125      -45.4356  -24.3989   12.7250 H         1 UNK         0.0825 
    126 H126      -47.9509  -23.8826   12.7391 H         1 UNK         0.3029 
    127 H127      -50.4041  -21.8376   14.3749 H         1 UNK         0.0897 
    128 H128      -48.1735  -21.0897   12.4040 H         1 UNK         0.0792 
    129 H129      -48.5049  -20.2823   13.9321 H         1 UNK         0.0792 
    130 H130      -49.6853  -20.2117   12.6334 H         1 UNK         0.0792 
    131 H131      -49.5613  -23.2232   11.8504 H         1 UNK         0.3086 
    132 H132      -52.7951  -24.5534   11.4138 H         1 UNK         0.0583 
    133 H133      -53.3028  -22.4298   10.3583 H         1 UNK         0.1020 
    134 H134      -51.6437  -22.1488    9.9197 H         1 UNK         0.1020 
    135 H135      -54.6348  -24.5011    9.5033 H         1 UNK         0.0694 
    136 H136      -54.7100  -24.7597    7.7776 H         1 UNK         0.0694 
    137 H137      -50.4424  -24.6222    9.8004 H         1 UNK         0.2989 
    138 H138      -48.4673  -26.6473   11.7568 H         1 UNK         0.1055 
    139 H139      -49.9018  -27.9837    9.4225 H         1 UNK         0.0806 
    140 H140      -48.4641  -28.5537   10.2657 H         1 UNK         0.0806 
    141 H141      -50.0141  -28.5461   11.0876 H         1 UNK         0.0806 
    142 H142      -48.1297  -26.3613    9.0109 H         1 UNK         0.3061 
    143 H143      -47.8887  -23.8786    7.9699 H         1 UNK         0.0734 
    144 H144      -45.7806  -22.6749    9.8416 H         1 UNK         0.0832 
    145 H145      -45.9827  -22.2568    8.1399 H         1 UNK         0.0832 
    146 H146      -47.2582  -21.9030    9.2943 H         1 UNK         0.0832 
    147 H147      -46.3997  -25.3338    7.2953 H         1 UNK         0.3156 
    148 H148      -43.1945  -26.1254    8.0251 H         1 UNK         0.0589 
    149 H149      -43.6534  -28.5879    8.2528 H         1 UNK         0.0808 
    150 H150      -43.8064  -27.7379    9.7808 H         1 UNK         0.0808 
    151 H151      -45.2500  -28.2205    8.9098 H         1 UNK         0.0808 
    152 H152      -45.3476  -27.4296    6.5217 H         1 UNK         0.3098 
    153 H153      -45.3192  -25.2007    3.8430 H         1 UNK         0.0720 
    154 H154      -43.1985  -26.3647    3.2128 H         1 UNK         0.0791 
    155 H155      -44.5719  -27.0508    2.3631 H         1 UNK         0.0791 
    156 H156      -43.8678  -27.9027    3.7389 H         1 UNK         0.0791 
    157 H157      -46.3318  -27.8597    4.0448 H         1 UNK         0.3028 
@<TRIPOS>BOND
     1    1    2 1    
     2    1   82 1    
     3    1   83 1    
     4    1   84 1    
     5    2    3 2    
     6    2    4 am   BACKBONE|DICT|INTERRES
     7    4    5 1    
     8    4   85 1    
     9    5    6 1    
    10    5   80 1    
    11    5   86 1    
    12    6    7 1    
    13    6   87 1    
    14    6   88 1    
    15    7    8 1    
    16    8    9 1    
    17    8   89 1    
    18    8   90 1    
    19    9   10 ar   
    20    9   14 ar   
    21   10   11 ar   
    22   10   91 1    
    23   11   12 ar   
    24   11   58 1    
    25   12   13 ar   
    26   12   92 1    
    27   13   14 ar   
    28   13   15 1    
    29   14   93 1    
    30   15   16 1    
    31   15   94 1    
    32   15   95 1    
    33   16   17 1    
    34   17   18 1    
    35   17   96 1    
    36   17   97 1    
    37   18   19 1    
    38   18   22 1    
    39   18   98 1    
    40   19   20 am   BACKBONE|DICT|INTERRES
    41   19   21 2    
    42   20   99 1    
    43   20  100 1    
    44   22   23 am   BACKBONE|DICT|INTERRES
    45   22  101 1    
    46   23   24 2    
    47   23   25 1    
    48   25   26 1    
    49   25   27 1    
    50   25  102 1    
    51   26  103 1    
    52   26  104 1    
    53   26  105 1    
    54   27   28 am   BACKBONE|DICT|INTERRES
    55   27  106 1    
    56   28   29 2    
    57   28   30 1    
    58   30   31 1    
    59   30   32 1    
    60   30  107 1    
    61   31  108 1    
    62   31  109 1    
    63   31  110 1    
    64   32   33 am   BACKBONE|DICT|INTERRES
    65   32  111 1    
    66   33   34 2    
    67   33   35 1    
    68   35   36 1    
    69   35   37 1    
    70   35  112 1    
    71   36  113 1    
    72   36  114 1    
    73   36  115 1    
    74   37   38 am   BACKBONE|DICT|INTERRES
    75   37  116 1    
    76   38   39 2    
    77   38   40 1    
    78   40   41 1    
    79   40   42 1    
    80   40  117 1    
    81   41  118 1    
    82   41  119 1    
    83   41  120 1    
    84   42   43 am   BACKBONE|DICT|INTERRES
    85   42  121 1    
    86   43   44 2    
    87   43   45 1    
    88   45   46 1    
    89   45   47 1    
    90   45  122 1    
    91   46  123 1    
    92   46  124 1    
    93   46  125 1    
    94   47   48 am   BACKBONE|DICT|INTERRES
    95   47  126 1    
    96   48   49 2    
    97   48   50 1    
    98   50   51 1    
    99   50   52 1    
   100   50  127 1    
   101   51  128 1    
   102   51  129 1    
   103   51  130 1    
   104   52   53 am   BACKBONE|DICT|INTERRES
   105   52  131 1    
   106   53   54 2    
   107   53   55 1    
   108   55   56 1    
   109   55   59 1    
   110   55  132 1    
   111   56   57 1    
   112   56  133 1    
   113   56  134 1    
   114   57   58 1    
   115   58  135 1    
   116   58  136 1    
   117   59   60 am   BACKBONE|DICT|INTERRES
   118   59  137 1    
   119   60   61 2    
   120   60   62 1    
   121   62   63 1    
   122   62   64 1    
   123   62  138 1    
   124   63  139 1    
   125   63  140 1    
   126   63  141 1    
   127   64   65 am   BACKBONE|DICT|INTERRES
   128   64  142 1    
   129   65   66 2    
   130   65   67 1    
   131   67   68 1    
   132   67   69 1    
   133   67  143 1    
   134   68  144 1    
   135   68  145 1    
   136   68  146 1    
   137   69   70 am   BACKBONE|DICT|INTERRES
   138   69  147 1    
   139   70   71 2    
   140   70   72 1    
   141   72   73 1    
   142   72   74 1    
   143   72  148 1    
   144   73  149 1    
   145   73  150 1    
   146   73  151 1    
   147   74   75 am   BACKBONE|DICT|INTERRES
   148   74  152 1    
   149   75   76 2    
   150   75   77 1    
   151   77   78 1    
   152   77   79 1    
   153   77  153 1    
   154   78  154 1    
   155   78  155 1    
   156   78  156 1    
   157   79   80 am   BACKBONE|DICT|INTERRES
   158   79  157 1    
   159   80   81 2    
@<TRIPOS>SUBSTRUCTURE
     1 UNK         1 GROUP             0       ****    0 ROOT    
