@<TRIPOS>MOLECULE
3R207
157   159    1
SMALL
USER_CHARGES


@<TRIPOS>ATOM
      1 CA        -44.6727  -25.9710   10.6424 C.3       0 UNK        -0.1975 
      2 C         -45.2553  -27.2099    9.9767 C.2       0 UNK         0.4852 
      3 O         -44.6672  -28.2865   10.0919 O.2       0 UNK        -0.5216 
      4 N         -46.3890  -27.0742    9.2784 N.am      1 UNK        -0.4461 
      5 CA        -46.9961  -28.1316    8.4718 C.3       1 UNK         0.0864 
      6 C6        -48.0515  -28.9724    9.2424 C.3       14 UNK        -0.0898 
      7 S7        -49.5946  -28.1021    9.6909 S.3       14 UNK        -0.2598 
      8 C8        -50.7013  -28.7272    8.3840 C.3       14 UNK         0.0286 
      9 C9        -52.0263  -27.9831    8.3616 C.ar      14 UNK        -0.0844 
     10 C10       -52.0761  -26.6667    7.8953 C.ar      14 UNK        -0.0881 
     11 C11       -53.2845  -25.9607    7.8799 C.ar      14 UNK        -0.0643 
     12 C12       -54.4530  -26.6062    8.2969 C.ar      14 UNK        -0.0930 
     13 C13       -54.4224  -27.9298    8.7494 C.ar      14 UNK        -0.0827 
     14 C14       -53.2029  -28.6121    8.7794 C.ar      14 UNK        -0.1249 
     15 C15       -55.7095  -28.6422    9.1536 C.3       14 UNK         0.0141 
     16 S16       -56.6998  -27.7080   10.3664 S.3       14 UNK        -0.2313 
     17 C17       -55.8294  -28.0546   11.9294 C.3       14 UNK        -0.0915 
     18 CA        -56.6645  -28.9693   12.8692 C.3       13 UNK         0.0968 
     19 C         -56.3626  -30.4729   12.6389 C.2       13 UNK         0.5732 
     20 N         -57.0800  -31.1165   11.7280 N.am      13 UNK        -0.7310 
     21 O         -55.4646  -31.0518   13.2465 O.2       13 UNK        -0.5035 
     22 N         -56.4870  -28.5889   14.2764 N.am      13 UNK        -0.4233 
     23 C         -57.4418  -28.6841   15.2111 C.2       13 UNK         0.4989 
     24 O         -58.5741  -29.1169   14.9858 O.2       13 UNK        -0.4996 
     25 CA        -57.0927  -28.1648   16.6203 C.3       12 UNK         0.0216 
     26 CB        -58.1276  -28.5658   17.6948 C.3       12 UNK        -0.1964 
     27 N         -55.7296  -28.4966   17.0445 N.am      12 UNK        -0.4276 
     28 C         -55.2137  -29.7142   17.2796 C.2       12 UNK         0.5020 
     29 O         -55.8622  -30.7587   17.2033 O.2       12 UNK        -0.5489 
     30 CA        -53.7219  -29.7884   17.6671 C.3       11 UNK         0.0294 
     31 CB        -52.9819  -30.8452   16.8264 C.3       11 UNK        -0.2019 
     32 N         -53.0487  -28.4988   17.4958 N.am      11 UNK        -0.4493 
     33 C         -52.7963  -27.6118   18.4684 C.2       11 UNK         0.4932 
     34 O         -53.0305  -27.8183   19.6590 O.2       11 UNK        -0.5029 
     35 CA        -52.2071  -26.2506   18.0456 C.3       10 UNK         0.0280 
     36 CB        -50.6907  -26.2238   18.2930 C.3       10 UNK        -0.1976 
     37 N         -52.4791  -25.9057   16.6452 N.am      10 UNK        -0.4242 
     38 C         -53.6978  -25.6154   16.1586 C.2       10 UNK         0.5072 
     39 O         -54.7097  -25.5541   16.8569 O.2       10 UNK        -0.5224 
     40 CA        -53.8371  -25.4551   14.6312 C.3       9 UNK         0.0343 
     41 CB        -53.6788  -23.9827   14.2256 C.3       9 UNK        -0.2003 
     42 N         -52.8912  -26.2832   13.8752 N.am      9 UNK        -0.4272 
     43 C         -52.8195  -27.6207   13.9742 C.2       9 UNK         0.4988 
     44 O         -53.6456  -28.2818   14.6011 O.2       9 UNK        -0.5108 
     45 CA        -51.6195  -28.3537   13.3453 C.3       8 UNK         0.0248 
     46 CB        -52.0690  -29.1770   12.1329 C.3       8 UNK        -0.2001 
     47 N         -50.5069  -27.4833   12.9578 N.am      8 UNK        -0.4140 
     48 C         -49.7982  -26.7120   13.7945 C.2       8 UNK         0.5028 
     49 O         -49.9791  -26.6800   15.0126 O.2       8 UNK        -0.5428 
     50 CA        -48.7658  -25.7643   13.1610 C.3       7 UNK         0.0264 
     51 CB        -47.3812  -26.4269   13.1201 C.3       7 UNK        -0.1988 
     52 N         -49.1156  -25.2920   11.8156 N.am      7 UNK        -0.4454 
     53 C         -50.2380  -24.6454   11.4689 C.2       7 UNK         0.5027 
     54 O         -51.1527  -24.4033   12.2578 O.2       7 UNK        -0.5083 
     55 CA        -50.3345  -24.1794   10.0008 C.3       6 UNK         0.0844 
     56 C56       -51.7612  -23.7028    9.6226 C.3       14 UNK        -0.0967 
     57 S57       -51.9189  -23.4717    7.8175 S.3       14 UNK        -0.2604 
     58 C58       -53.3663  -24.5100    7.4045 C.3       14 UNK         0.0134 
     59 N         -49.3351  -23.1386    9.7379 N.am      6 UNK        -0.4116 
     60 C         -48.0310  -23.3529    9.5325 C.2       5 UNK         0.5034 
     61 O         -47.5141  -24.4711    9.5110 O.2       5 UNK        -0.5045 
     62 CA        -47.1460  -22.1100    9.4180 C.3       5 UNK         0.0224 
     63 CB        -46.7439  -21.6207   10.8242 C.3       5 UNK        -0.1978 
     64 N         -45.9526  -22.4227    8.6324 N.am      5 UNK        -0.4737 
     65 C         -45.1369  -21.5168    8.0839 C.2       4 UNK         0.5027 
     66 O         -45.3190  -20.3014    8.1634 O.2       4 UNK        -0.5211 
     67 CA        -43.9154  -22.0342    7.3068 C.3       4 UNK         0.0297 
     68 CB        -42.8720  -22.6786    8.2430 C.3       4 UNK        -0.1993 
     69 N         -44.2623  -22.8996    6.1720 N.am      4 UNK        -0.4486 
     70 C         -44.7402  -24.1498    6.1903 C.2       3 UNK         0.4961 
     71 O         -44.9519  -24.8005    7.2176 O.2       3 UNK        -0.5105 
     72 CA        -45.0103  -24.7778    4.8159 C.3       3 UNK         0.0299 
     73 CB        -43.6986  -25.1394    4.0964 C.3       3 UNK        -0.1972 
     74 N         -45.8014  -25.9856    5.0085 N.am      3 UNK        -0.4305 
     75 C         -46.7951  -26.4215    4.2265 C.2       2 UNK         0.5006 
     76 O         -47.1148  -25.8778    3.1680 O.2       2 UNK        -0.5106 
     77 CA        -47.5655  -27.6812    4.6833 C.3       2 UNK         0.0296 
     78 CB        -47.3558  -28.8357    3.6881 C.3       2 UNK        -0.2002 
     79 N         -47.2208  -28.1522    6.0314 N.am      2 UNK        -0.4032 
     80 C         -47.5185  -27.5055    7.1669 C.2       1 UNK         0.5000 
     81 O         -48.1557  -26.4510    7.1972 O.2       1 UNK        -0.5238 
     82 H82       -44.4132  -26.1864   11.6783 H         1 UNK         0.0889 
     83 H83       -45.3640  -25.1313   10.6361 H         1 UNK         0.0889 
     84 H84       -43.7663  -25.6643   10.1215 H         1 UNK         0.0889 
     85 H85       -46.8259  -26.1570    9.1784 H         1 UNK         0.3028 
     86 H86       -46.2013  -28.8218    8.1796 H         1 UNK         0.0864 
     87 H87       -48.3016  -29.8643    8.6654 H         1 UNK         0.0720 
     88 H88       -47.6068  -29.3476   10.1653 H         1 UNK         0.0720 
     89 H89       -50.8612  -29.7962    8.5333 H         1 UNK         0.0814 
     90 H90       -50.2227  -28.6205    7.4100 H         1 UNK         0.0814 
     91 H91       -51.1647  -26.1916    7.5576 H         1 UNK         0.1469 
     92 H92       -55.3962  -26.0778    8.2669 H         1 UNK         0.1381 
     93 H93       -53.1694  -29.6373    9.1224 H         1 UNK         0.1206 
     94 H94       -55.5016  -29.6372    9.5505 H         1 UNK         0.0813 
     95 H95       -56.3129  -28.7919    8.2575 H         1 UNK         0.0813 
     96 H96       -55.6561  -27.0845   12.3972 H         1 UNK         0.0638 
     97 H97       -54.8387  -28.4641   11.7316 H         1 UNK         0.0638 
     98 H98       -57.7189  -28.8117   12.6320 H         1 UNK         0.0568 
     99 H99       -57.8087  -30.6470   11.2137 H         1 UNK         0.3450 
    100 H100      -56.8913  -32.0913   11.5560 H         1 UNK         0.3450 
    101 H101      -55.5366  -28.3544   14.5492 H         1 UNK         0.2987 
    102 H102      -57.1184  -27.0767   16.5432 H         1 UNK         0.0766 
    103 H103      -59.1171  -28.1795   17.4475 H         1 UNK         0.0798 
    104 H104      -57.8606  -28.1644   18.6724 H         1 UNK         0.0798 
    105 H105      -58.2179  -29.6483   17.7891 H         1 UNK         0.0798 
    106 H106      -55.1102  -27.7003   17.1357 H         1 UNK         0.3198 
    107 H107      -53.6772  -30.0960   18.7139 H         1 UNK         0.0843 
    108 H108      -53.0600  -30.6397   15.7580 H         1 UNK         0.0831 
    109 H109      -53.3973  -31.8396   16.9948 H         1 UNK         0.0831 
    110 H110      -51.9240  -30.8902   17.0847 H         1 UNK         0.0831 
    111 H111      -52.8710  -28.2330   16.5341 H         1 UNK         0.3133 
    112 H112      -52.6665  -25.4847   18.6740 H         1 UNK         0.0566 
    113 H113      -50.2620  -25.2550   18.0363 H         1 UNK         0.0814 
    114 H114      -50.1730  -26.9851   17.7081 H         1 UNK         0.0814 
    115 H115      -50.4634  -26.4108   19.3434 H         1 UNK         0.0814 
    116 H116      -51.6960  -25.9811   16.0023 H         1 UNK         0.3091 
    117 H117      -54.8450  -25.7752   14.3600 H         1 UNK         0.0702 
    118 H118      -53.8456  -23.8463   13.1568 H         1 UNK         0.0785 
    119 H119      -52.6823  -23.6054   14.4591 H         1 UNK         0.0785 
    120 H120      -54.3990  -23.3528   14.7496 H         1 UNK         0.0785 
    121 H121      -52.1919  -25.7863   13.3318 H         1 UNK         0.2998 
    122 H122      -51.2424  -29.0447   14.1018 H         1 UNK         0.0697 
    123 H123      -52.4274  -28.5269   11.3369 H         1 UNK         0.0825 
    124 H124      -52.8798  -29.8582   12.3960 H         1 UNK         0.0825 
    125 H125      -51.2549  -29.7829   11.7352 H         1 UNK         0.0825 
    126 H126      -50.2835  -27.4446   11.9716 H         1 UNK         0.3029 
    127 H127      -48.7056  -24.8850   13.8056 H         1 UNK         0.0897 
    128 H128      -47.3542  -27.2638   12.4207 H         1 UNK         0.0792 
    129 H129      -47.1003  -26.8109   14.1020 H         1 UNK         0.0792 
    130 H130      -46.6144  -25.7117   12.8248 H         1 UNK         0.0792 
    131 H131      -48.4142  -25.4069   11.0914 H         1 UNK         0.3086 
    132 H132      -50.0976  -25.0490    9.3843 H         1 UNK         0.0583 
    133 H133      -52.5089  -24.4220    9.9620 H         1 UNK         0.1020 
    134 H134      -52.0055  -22.7646   10.1242 H         1 UNK         0.1020 
    135 H135      -54.2514  -24.0287    7.8237 H         1 UNK         0.0694 
    136 H136      -53.4979  -24.5072    6.3219 H         1 UNK         0.0694 
    137 H137      -49.6737  -22.1885    9.7725 H         1 UNK         0.2989 
    138 H138      -47.7104  -21.3292    8.9030 H         1 UNK         0.1055 
    139 H139      -46.1484  -22.3670   11.3520 H         1 UNK         0.0806 
    140 H140      -47.6221  -21.4120   11.4365 H         1 UNK         0.0806 
    141 H141      -46.1614  -20.7005   10.7791 H         1 UNK         0.0806 
    142 H142      -45.7778  -23.4118    8.4654 H         1 UNK         0.3061 
    143 H143      -43.4391  -21.1585    6.8623 H         1 UNK         0.0734 
    144 H144      -43.2658  -23.5499    8.7661 H         1 UNK         0.0832 
    145 H145      -41.9849  -22.9913    7.6925 H         1 UNK         0.0832 
    146 H146      -42.5475  -21.9688    9.0049 H         1 UNK         0.0832 
    147 H147      -44.1530  -22.4629    5.2665 H         1 UNK         0.3156 
    148 H148      -45.5723  -24.0568    4.2183 H         1 UNK         0.0589 
    149 H149      -43.0988  -25.8380    4.6813 H         1 UNK         0.0808 
    150 H150      -43.8936  -25.5979    3.1267 H         1 UNK         0.0808 
    151 H151      -43.0870  -24.2546    3.9165 H         1 UNK         0.0808 
    152 H152      -45.6622  -26.4224    5.9102 H         1 UNK         0.3098 
    153 H153      -48.6260  -27.4203    4.6818 H         1 UNK         0.0720 
    154 H154      -47.9564  -29.7055    3.9551 H         1 UNK         0.0791 
    155 H155      -46.3111  -29.1467    3.6453 H         1 UNK         0.0791 
    156 H156      -47.6491  -28.5421    2.6791 H         1 UNK         0.0791 
    157 H157      -46.6910  -29.0110    6.0811 H         1 UNK         0.3028 
@<TRIPOS>BOND
     1    1    2 1    
     2    1   82 1    
     3    1   83 1    
     4    1   84 1    
     5    2    3 2    
     6    2    4 am   BACKBONE|DICT|INTERRES
     7    4    5 1    
     8    4   85 1    
     9    5    6 1    
    10    5   80 1    
    11    5   86 1    
    12    6    7 1    
    13    6   87 1    
    14    6   88 1    
    15    7    8 1    
    16    8    9 1    
    17    8   89 1    
    18    8   90 1    
    19    9   10 ar   
    20    9   14 ar   
    21   10   11 ar   
    22   10   91 1    
    23   11   12 ar   
    24   11   58 1    
    25   12   13 ar   
    26   12   92 1    
    27   13   14 ar   
    28   13   15 1    
    29   14   93 1    
    30   15   16 1    
    31   15   94 1    
    32   15   95 1    
    33   16   17 1    
    34   17   18 1    
    35   17   96 1    
    36   17   97 1    
    37   18   19 1    
    38   18   22 1    
    39   18   98 1    
    40   19   20 am   BACKBONE|DICT|INTERRES
    41   19   21 2    
    42   20   99 1    
    43   20  100 1    
    44   22   23 am   BACKBONE|DICT|INTERRES
    45   22  101 1    
    46   23   24 2    
    47   23   25 1    
    48   25   26 1    
    49   25   27 1    
    50   25  102 1    
    51   26  103 1    
    52   26  104 1    
    53   26  105 1    
    54   27   28 am   BACKBONE|DICT|INTERRES
    55   27  106 1    
    56   28   29 2    
    57   28   30 1    
    58   30   31 1    
    59   30   32 1    
    60   30  107 1    
    61   31  108 1    
    62   31  109 1    
    63   31  110 1    
    64   32   33 am   BACKBONE|DICT|INTERRES
    65   32  111 1    
    66   33   34 2    
    67   33   35 1    
    68   35   36 1    
    69   35   37 1    
    70   35  112 1    
    71   36  113 1    
    72   36  114 1    
    73   36  115 1    
    74   37   38 am   BACKBONE|DICT|INTERRES
    75   37  116 1    
    76   38   39 2    
    77   38   40 1    
    78   40   41 1    
    79   40   42 1    
    80   40  117 1    
    81   41  118 1    
    82   41  119 1    
    83   41  120 1    
    84   42   43 am   BACKBONE|DICT|INTERRES
    85   42  121 1    
    86   43   44 2    
    87   43   45 1    
    88   45   46 1    
    89   45   47 1    
    90   45  122 1    
    91   46  123 1    
    92   46  124 1    
    93   46  125 1    
    94   47   48 am   BACKBONE|DICT|INTERRES
    95   47  126 1    
    96   48   49 2    
    97   48   50 1    
    98   50   51 1    
    99   50   52 1    
   100   50  127 1    
   101   51  128 1    
   102   51  129 1    
   103   51  130 1    
   104   52   53 am   BACKBONE|DICT|INTERRES
   105   52  131 1    
   106   53   54 2    
   107   53   55 1    
   108   55   56 1    
   109   55   59 1    
   110   55  132 1    
   111   56   57 1    
   112   56  133 1    
   113   56  134 1    
   114   57   58 1    
   115   58  135 1    
   116   58  136 1    
   117   59   60 am   BACKBONE|DICT|INTERRES
   118   59  137 1    
   119   60   61 2    
   120   60   62 1    
   121   62   63 1    
   122   62   64 1    
   123   62  138 1    
   124   63  139 1    
   125   63  140 1    
   126   63  141 1    
   127   64   65 am   BACKBONE|DICT|INTERRES
   128   64  142 1    
   129   65   66 2    
   130   65   67 1    
   131   67   68 1    
   132   67   69 1    
   133   67  143 1    
   134   68  144 1    
   135   68  145 1    
   136   68  146 1    
   137   69   70 am   BACKBONE|DICT|INTERRES
   138   69  147 1    
   139   70   71 2    
   140   70   72 1    
   141   72   73 1    
   142   72   74 1    
   143   72  148 1    
   144   73  149 1    
   145   73  150 1    
   146   73  151 1    
   147   74   75 am   BACKBONE|DICT|INTERRES
   148   74  152 1    
   149   75   76 2    
   150   75   77 1    
   151   77   78 1    
   152   77   79 1    
   153   77  153 1    
   154   78  154 1    
   155   78  155 1    
   156   78  156 1    
   157   79   80 am   BACKBONE|DICT|INTERRES
   158   79  157 1    
   159   80   81 2    
@<TRIPOS>SUBSTRUCTURE
     1 UNK         1 GROUP             0       ****    0 ROOT    
