@<TRIPOS>MOLECULE
3R207
157   159    1
SMALL
USER_CHARGES


@<TRIPOS>ATOM
      1 CA        -50.2201  -31.1759    8.9907 C.3       0 UNK        -0.1975 
      2 C         -49.5367  -31.0135    7.6428 C.2       0 UNK         0.4852 
      3 O         -48.5869  -31.7389    7.3468 O.2       0 UNK        -0.5216 
      4 N         -50.0023  -30.0567    6.8281 N.am      1 UNK        -0.4461 
      5 CA        -49.4768  -29.7784    5.4822 C.3       1 UNK         0.0864 
      6 C6        -50.5055  -29.0384    4.5900 C.3       14 UNK        -0.0898 
      7 S7        -52.0517  -29.9864    4.3761 S.3       14 UNK        -0.2598 
      8 C8        -53.2927  -28.8832    5.1239 C.3       14 UNK         0.0286 
      9 C9        -53.1205  -28.7694    6.6309 C.ar      14 UNK        -0.0844 
     10 C10       -52.4798  -27.6598    7.1856 C.ar      14 UNK        -0.0881 
     11 C11       -52.3134  -27.5549    8.5679 C.ar      14 UNK        -0.0643 
     12 C12       -52.8156  -28.5568    9.4038 C.ar      14 UNK        -0.0930 
     13 C13       -53.4776  -29.6630    8.8610 C.ar      14 UNK        -0.0827 
     14 C14       -53.6141  -29.7685    7.4732 C.ar      14 UNK        -0.1249 
     15 C15       -54.0403  -30.7558    9.7594 C.3       14 UNK         0.0141 
     16 S16       -55.8602  -30.8084    9.6838 S.3       14 UNK        -0.2313 
     17 C17       -56.3528  -29.8168   11.1345 C.3       14 UNK        -0.0915 
     18 CA        -56.0783  -28.2860   11.0570 C.3       13 UNK         0.0968 
     19 C         -56.7614  -27.5904    9.8504 C.2       13 UNK         0.5732 
     20 N         -56.1018  -27.5324    8.7022 N.am      13 UNK        -0.7310 
     21 O         -57.8873  -27.1033    9.9492 O.2       13 UNK        -0.5035 
     22 N         -56.4880  -27.6128   12.2931 N.am      13 UNK        -0.4233 
     23 C         -55.8931  -27.7289   13.4830 C.2       13 UNK         0.4989 
     24 O         -54.8821  -28.4063   13.6866 O.2       13 UNK        -0.4996 
     25 CA        -56.5560  -26.9830   14.6492 C.3       12 UNK         0.0216 
     26 CB        -57.9559  -27.5550   14.9563 C.3       12 UNK        -0.1964 
     27 N         -55.6987  -27.1040   15.8250 N.am      12 UNK        -0.4276 
     28 C         -55.7365  -26.3380   16.9208 C.2       12 UNK         0.5020 
     29 O         -56.5248  -25.4035   17.0732 O.2       12 UNK        -0.5489 
     30 CA        -54.7446  -26.6725   18.0523 C.3       11 UNK         0.0294 
     31 CB        -55.4619  -27.4257   19.1851 C.3       11 UNK        -0.2019 
     32 N         -53.5881  -27.4609   17.6116 N.am      11 UNK        -0.4493 
     33 C         -52.5637  -26.9662   16.9056 C.2       11 UNK         0.4932 
     34 O         -52.4805  -25.7880   16.5584 O.2       11 UNK        -0.5029 
     35 CA        -51.4813  -27.9745   16.4954 C.3       10 UNK         0.0280 
     36 CB        -51.9323  -28.7754   15.2623 C.3       10 UNK        -0.1976 
     37 N         -50.2202  -27.3004   16.1859 N.am      10 UNK        -0.4242 
     38 C         -49.2661  -27.0249   17.0836 C.2       10 UNK         0.5072 
     39 O         -49.3499  -27.3032   18.2814 O.2       10 UNK        -0.5224 
     40 CA        -47.9815  -26.3642   16.5559 C.3       9 UNK         0.0343 
     41 CB        -47.1601  -27.3610   15.7207 C.3       9 UNK        -0.2003 
     42 N         -48.2255  -25.1530   15.7716 N.am      9 UNK        -0.4272 
     43 C         -48.6185  -23.9776   16.2847 C.2       9 UNK         0.4988 
     44 O         -48.8388  -23.7891   17.4816 O.2       9 UNK        -0.5108 
     45 CA        -48.7697  -22.8041   15.3003 C.3       8 UNK         0.0248 
     46 CB        -47.4012  -22.1926   14.9575 C.3       8 UNK        -0.2001 
     47 N         -49.4479  -23.2103   14.0708 N.am      8 UNK        -0.4140 
     48 C         -50.7631  -23.4477   13.9782 C.2       8 UNK         0.5028 
     49 O         -51.5690  -23.1857   14.8705 O.2       8 UNK        -0.5428 
     50 CA        -51.2711  -24.0856   12.6739 C.3       7 UNK         0.0264 
     51 CB        -51.8059  -23.0149   11.7088 C.3       7 UNK        -0.1988 
     52 N         -50.2518  -24.8874   11.9924 N.am      7 UNK        -0.4454 
     53 C         -49.8094  -26.0796   12.4174 C.2       7 UNK         0.5027 
     54 O         -50.1971  -26.6258   13.4477 O.2       7 UNK        -0.5083 
     55 CA        -48.7247  -26.7666   11.5645 C.3       6 UNK         0.0844 
     56 C56       -49.3422  -27.5489   10.3754 C.3       14 UNK        -0.0967 
     57 S57       -49.7934  -26.4935    8.9495 S.3       14 UNK        -0.2604 
     58 C58       -51.5977  -26.3467    9.1436 C.3       14 UNK         0.0134 
     59 N         -47.6846  -25.8282   11.1387 N.am      6 UNK        -0.4116 
     60 C         -46.8647  -25.1539   11.9549 C.2       5 UNK         0.5034 
     61 O         -46.8401  -25.2950   13.1767 O.2       5 UNK        -0.5045 
     62 CA        -45.9706  -24.0928   11.2933 C.3       5 UNK         0.0224 
     63 CB        -44.6818  -24.7298   10.7514 C.3       5 UNK        -0.1978 
     64 N         -46.6494  -23.3674   10.2133 N.am      5 UNK        -0.4737 
     65 C         -47.7499  -22.6194   10.3588 C.2       4 UNK         0.5027 
     66 O         -48.3117  -22.4522   11.4401 O.2       4 UNK        -0.5211 
     67 CA        -48.3597  -21.9889    9.0943 C.3       4 UNK         0.0297 
     68 CB        -47.6294  -20.6855    8.7173 C.3       4 UNK        -0.1993 
     69 N         -48.4766  -22.9052    7.9471 N.am      4 UNK        -0.4486 
     70 C         -47.5038  -23.4631    7.2124 C.2       3 UNK         0.4961 
     71 O         -46.3021  -23.2818    7.4138 O.2       3 UNK        -0.5105 
     72 CA        -47.9690  -24.3923    6.0783 C.3       3 UNK         0.0299 
     73 CB        -47.4529  -23.9291    4.7011 C.3       3 UNK        -0.1972 
     74 N         -47.6350  -25.7934    6.3585 N.am      3 UNK        -0.4305 
     75 C         -46.4322  -26.3915    6.3738 C.2       2 UNK         0.5006 
     76 O         -45.3736  -25.8572    6.0436 O.2       2 UNK        -0.5106 
     77 CA        -46.3981  -27.8566    6.8446 C.3       2 UNK         0.0296 
     78 CB        -45.9762  -27.9346    8.3211 C.3       2 UNK        -0.2002 
     79 N         -47.6739  -28.5575    6.6659 N.am      2 UNK        -0.4032 
     80 C         -48.1227  -29.0308    5.4929 C.2       1 UNK         0.5000 
     81 O         -47.5053  -28.9003    4.4341 O.2       1 UNK        -0.5238 
     82 H82       -50.6050  -30.2260    9.3552 H         1 UNK         0.0889 
     83 H83       -49.5184  -31.5573    9.7320 H         1 UNK         0.0889 
     84 H84       -51.0486  -31.8788    8.9100 H         1 UNK         0.0889 
     85 H85       -50.8172  -29.5207    7.0996 H         1 UNK         0.3028 
     86 H86       -49.2758  -30.7411    5.0065 H         1 UNK         0.0864 
     87 H87       -50.7195  -28.0454    4.9859 H         1 UNK         0.0720 
     88 H88       -50.0950  -28.8764    3.5914 H         1 UNK         0.0720 
     89 H89       -54.2876  -29.2723    4.9023 H         1 UNK         0.0814 
     90 H90       -53.2408  -27.9012    4.6509 H         1 UNK         0.0814 
     91 H91       -52.1019  -26.8759    6.5434 H         1 UNK         0.1469 
     92 H92       -52.6918  -28.4745   10.4752 H         1 UNK         0.1381 
     93 H93       -54.1164  -30.6271    7.0480 H         1 UNK         0.1206 
     94 H94       -53.6502  -31.7189    9.4277 H         1 UNK         0.0813 
     95 H95       -53.7097  -30.6321   10.7920 H         1 UNK         0.0813 
     96 H96       -57.4180  -29.9887   11.2987 H         1 UNK         0.0638 
     97 H97       -55.8509  -30.2470   12.0018 H         1 UNK         0.0638 
     98 H98       -55.0055  -28.1267   10.9597 H         1 UNK         0.0568 
     99 H99       -56.5360  -27.0851    7.9111 H         1 UNK         0.3450 
    100 H100      -55.1974  -27.9704    8.6000 H         1 UNK         0.3450 
    101 H101      -57.3065  -27.0269   12.1892 H         1 UNK         0.2987 
    102 H102      -56.6373  -25.9288   14.3766 H         1 UNK         0.0766 
    103 H103      -58.4310  -27.0273   15.7835 H         1 UNK         0.0798 
    104 H104      -57.9074  -28.6122   15.2206 H         1 UNK         0.0798 
    105 H105      -58.6227  -27.4628   14.0984 H         1 UNK         0.0798 
    106 H106      -54.9825  -27.8148   15.7365 H         1 UNK         0.3198 
    107 H107      -54.3802  -25.7238   18.4533 H         1 UNK         0.0843 
    108 H108      -56.3095  -26.8501   19.5601 H         1 UNK         0.0831 
    109 H109      -54.7957  -27.6032   20.0296 H         1 UNK         0.0831 
    110 H110      -55.8472  -28.3896   18.8500 H         1 UNK         0.0831 
    111 H111      -53.5843  -28.4409   17.8582 H         1 UNK         0.3133 
    112 H112      -51.3234  -28.6742   17.3190 H         1 UNK         0.0566 
    113 H113      -51.1552  -29.4627   14.9277 H         1 UNK         0.0814 
    114 H114      -52.8185  -29.3722   15.4805 H         1 UNK         0.0814 
    115 H115      -52.1819  -28.1217   14.4254 H         1 UNK         0.0814 
    116 H116      -50.1094  -26.9851   15.2232 H         1 UNK         0.3091 
    117 H117      -47.3777  -26.0838   17.4218 H         1 UNK         0.0702 
    118 H118      -46.1957  -26.9384   15.4380 H         1 UNK         0.0785 
    119 H119      -47.6788  -27.6466   14.8048 H         1 UNK         0.0785 
    120 H120      -46.9613  -28.2740   16.2838 H         1 UNK         0.0785 
    121 H121      -48.0017  -25.2034   14.7827 H         1 UNK         0.2998 
    122 H122      -49.3700  -22.0321   15.7866 H         1 UNK         0.0697 
    123 H123      -46.7406  -22.9144   14.4769 H         1 UNK         0.0825 
    124 H124      -46.8971  -21.8392   15.8579 H         1 UNK         0.0825 
    125 H125      -47.5058  -21.3392   14.2870 H         1 UNK         0.0825 
    126 H126      -48.8768  -23.3375   13.2428 H         1 UNK         0.3029 
    127 H127      -52.0980  -24.7483   12.9402 H         1 UNK         0.0897 
    128 H128      -52.2205  -23.4636   10.8060 H         1 UNK         0.0792 
    129 H129      -52.6028  -22.4352   12.1767 H         1 UNK         0.0792 
    130 H130      -51.0271  -22.3126   11.4104 H         1 UNK         0.0792 
    131 H131      -49.8460  -24.4913   11.1575 H         1 UNK         0.3086 
    132 H132      -48.2401  -27.4979   12.2152 H         1 UNK         0.0583 
    133 H133      -48.6196  -28.2854   10.0230 H         1 UNK         0.1020 
    134 H134      -50.2023  -28.1369   10.7002 H         1 UNK         0.1020 
    135 H135      -51.8618  -26.2072   10.1919 H         1 UNK         0.0694 
    136 H136      -51.9337  -25.4471    8.6258 H         1 UNK         0.0694 
    137 H137      -47.6579  -25.6150   10.1530 H         1 UNK         0.2989 
    138 H138      -45.7010  -23.3674   12.0641 H         1 UNK         0.1055 
    139 H139      -44.1574  -25.2797   11.5343 H         1 UNK         0.0806 
    140 H140      -43.9950  -23.9719   10.3742 H         1 UNK         0.0806 
    141 H141      -44.8851  -25.4287    9.9394 H         1 UNK         0.0806 
    142 H142      -46.2604  -23.4369    9.2747 H         1 UNK         0.3061 
    143 H143      -49.3847  -21.7174    9.3525 H         1 UNK         0.0734 
    144 H144      -47.6468  -19.9783    9.5476 H         1 UNK         0.0832 
    145 H145      -46.5830  -20.8581    8.4644 H         1 UNK         0.0832 
    146 H146      -48.1038  -20.1970    7.8663 H         1 UNK         0.0832 
    147 H147      -49.4278  -23.1492    7.7062 H         1 UNK         0.3156 
    148 H148      -49.0589  -24.3574    6.0358 H         1 UNK         0.0589 
    149 H149      -47.8330  -22.9354    4.4613 H         1 UNK         0.0808 
    150 H150      -46.3646  -23.8709    4.6674 H         1 UNK         0.0808 
    151 H151      -47.7779  -24.6024    3.9080 H         1 UNK         0.0808 
    152 H152      -48.4130  -26.3504    6.6829 H         1 UNK         0.3098 
    153 H153      -45.6395  -28.3736    6.2524 H         1 UNK         0.0720 
    154 H154      -45.9375  -28.9661    8.6720 H         1 UNK         0.0791 
    155 H155      -46.6571  -27.3822    8.9664 H         1 UNK         0.0791 
    156 H156      -44.9814  -27.5095    8.4612 H         1 UNK         0.0791 
    157 H157      -48.2362  -28.7179    7.4882 H         1 UNK         0.3028 
@<TRIPOS>BOND
     1    1    2 1    
     2    1   82 1    
     3    1   83 1    
     4    1   84 1    
     5    2    3 2    
     6    2    4 am   BACKBONE|DICT|INTERRES
     7    4    5 1    
     8    4   85 1    
     9    5    6 1    
    10    5   80 1    
    11    5   86 1    
    12    6    7 1    
    13    6   87 1    
    14    6   88 1    
    15    7    8 1    
    16    8    9 1    
    17    8   89 1    
    18    8   90 1    
    19    9   10 ar   
    20    9   14 ar   
    21   10   11 ar   
    22   10   91 1    
    23   11   12 ar   
    24   11   58 1    
    25   12   13 ar   
    26   12   92 1    
    27   13   14 ar   
    28   13   15 1    
    29   14   93 1    
    30   15   16 1    
    31   15   94 1    
    32   15   95 1    
    33   16   17 1    
    34   17   18 1    
    35   17   96 1    
    36   17   97 1    
    37   18   19 1    
    38   18   22 1    
    39   18   98 1    
    40   19   20 am   BACKBONE|DICT|INTERRES
    41   19   21 2    
    42   20   99 1    
    43   20  100 1    
    44   22   23 am   BACKBONE|DICT|INTERRES
    45   22  101 1    
    46   23   24 2    
    47   23   25 1    
    48   25   26 1    
    49   25   27 1    
    50   25  102 1    
    51   26  103 1    
    52   26  104 1    
    53   26  105 1    
    54   27   28 am   BACKBONE|DICT|INTERRES
    55   27  106 1    
    56   28   29 2    
    57   28   30 1    
    58   30   31 1    
    59   30   32 1    
    60   30  107 1    
    61   31  108 1    
    62   31  109 1    
    63   31  110 1    
    64   32   33 am   BACKBONE|DICT|INTERRES
    65   32  111 1    
    66   33   34 2    
    67   33   35 1    
    68   35   36 1    
    69   35   37 1    
    70   35  112 1    
    71   36  113 1    
    72   36  114 1    
    73   36  115 1    
    74   37   38 am   BACKBONE|DICT|INTERRES
    75   37  116 1    
    76   38   39 2    
    77   38   40 1    
    78   40   41 1    
    79   40   42 1    
    80   40  117 1    
    81   41  118 1    
    82   41  119 1    
    83   41  120 1    
    84   42   43 am   BACKBONE|DICT|INTERRES
    85   42  121 1    
    86   43   44 2    
    87   43   45 1    
    88   45   46 1    
    89   45   47 1    
    90   45  122 1    
    91   46  123 1    
    92   46  124 1    
    93   46  125 1    
    94   47   48 am   BACKBONE|DICT|INTERRES
    95   47  126 1    
    96   48   49 2    
    97   48   50 1    
    98   50   51 1    
    99   50   52 1    
   100   50  127 1    
   101   51  128 1    
   102   51  129 1    
   103   51  130 1    
   104   52   53 am   BACKBONE|DICT|INTERRES
   105   52  131 1    
   106   53   54 2    
   107   53   55 1    
   108   55   56 1    
   109   55   59 1    
   110   55  132 1    
   111   56   57 1    
   112   56  133 1    
   113   56  134 1    
   114   57   58 1    
   115   58  135 1    
   116   58  136 1    
   117   59   60 am   BACKBONE|DICT|INTERRES
   118   59  137 1    
   119   60   61 2    
   120   60   62 1    
   121   62   63 1    
   122   62   64 1    
   123   62  138 1    
   124   63  139 1    
   125   63  140 1    
   126   63  141 1    
   127   64   65 am   BACKBONE|DICT|INTERRES
   128   64  142 1    
   129   65   66 2    
   130   65   67 1    
   131   67   68 1    
   132   67   69 1    
   133   67  143 1    
   134   68  144 1    
   135   68  145 1    
   136   68  146 1    
   137   69   70 am   BACKBONE|DICT|INTERRES
   138   69  147 1    
   139   70   71 2    
   140   70   72 1    
   141   72   73 1    
   142   72   74 1    
   143   72  148 1    
   144   73  149 1    
   145   73  150 1    
   146   73  151 1    
   147   74   75 am   BACKBONE|DICT|INTERRES
   148   74  152 1    
   149   75   76 2    
   150   75   77 1    
   151   77   78 1    
   152   77   79 1    
   153   77  153 1    
   154   78  154 1    
   155   78  155 1    
   156   78  156 1    
   157   79   80 am   BACKBONE|DICT|INTERRES
   158   79  157 1    
   159   80   81 2    
@<TRIPOS>SUBSTRUCTURE
     1 UNK         1 GROUP             0       ****    0 ROOT    
