@<TRIPOS>MOLECULE
3R207
157   159    1
SMALL
USER_CHARGES


@<TRIPOS>ATOM
      1 CA        -44.5724  -28.1150    7.1599 C.3       0 UNK        -0.1975 
      2 C         -45.3659  -28.6142    5.9620 C.2       0 UNK         0.4852 
      3 O         -44.8151  -28.7394    4.8669 O.2       0 UNK        -0.5216 
      4 N         -46.6643  -28.8812    6.1486 N.am      1 UNK        -0.4461 
      5 CA        -47.6235  -29.3136    5.1237 C.3       1 UNK         0.0864 
      6 C6        -48.8034  -30.1084    5.7528 C.3       14 UNK        -0.0898 
      7 S7        -49.5862  -29.2992    7.1966 S.3       14 UNK        -0.2598 
      8 C8        -51.2805  -29.0348    6.5913 C.3       14 UNK         0.0286 
      9 C9        -52.1037  -28.2438    7.5955 C.ar      14 UNK        -0.0844 
     10 C10       -52.0212  -26.8499    7.6238 C.ar      14 UNK        -0.0881 
     11 C11       -52.7805  -26.1082    8.5345 C.ar      14 UNK        -0.0643 
     12 C12       -53.6294  -26.7741    9.4261 C.ar      14 UNK        -0.0930 
     13 C13       -53.7341  -28.1698    9.3940 C.ar      14 UNK        -0.0827 
     14 C14       -52.9653  -28.8975    8.4795 C.ar      14 UNK        -0.1249 
     15 C15       -54.7097  -28.9005   10.3057 C.3       14 UNK         0.0141 
     16 S16       -53.8411  -29.8986   11.5530 S.3       14 UNK        -0.2313 
     17 C17       -55.1913  -30.9499   12.1882 C.3       14 UNK        -0.0915 
     18 CA        -55.4860  -30.7890   13.7038 C.3       13 UNK         0.0968 
     19 C         -54.3710  -31.3788   14.6187 C.2       13 UNK         0.5732 
     20 N         -53.8200  -30.6386   15.5738 N.am      13 UNK        -0.7310 
     21 O         -54.0177  -32.5472   14.4768 O.2       13 UNK        -0.5035 
     22 N         -55.9245  -29.4251   14.0419 N.am      13 UNK        -0.4233 
     23 C         -56.7471  -29.1317   15.0575 C.2       13 UNK         0.4989 
     24 O         -57.2279  -29.9833   15.8075 O.2       13 UNK        -0.4996 
     25 CA        -57.1136  -27.6537   15.2666 C.3       12 UNK         0.0216 
     26 CB        -57.3786  -27.3237   16.7486 C.3       12 UNK        -0.1964 
     27 N         -56.0754  -26.7510   14.7663 N.am      12 UNK        -0.4276 
     28 C         -56.2958  -25.6750   13.9967 C.2       12 UNK         0.5020 
     29 O         -57.3851  -25.4257   13.4766 O.2       12 UNK        -0.5489 
     30 CA        -55.1122  -24.7035   13.7778 C.3       11 UNK         0.0294 
     31 CB        -55.5727  -23.2525   13.5302 C.3       11 UNK        -0.2019 
     32 N         -54.1062  -24.7424   14.8463 N.am      11 UNK        -0.4493 
     33 C         -54.2869  -24.5721   16.1661 C.2       11 UNK         0.4932 
     34 O         -55.3459  -24.1974   16.6717 O.2       11 UNK        -0.5029 
     35 CA        -53.0904  -24.9316   17.0744 C.3       10 UNK         0.0280 
     36 CB        -53.5372  -25.3759   18.4827 C.3       10 UNK        -0.1976 
     37 N         -52.1843  -25.9334   16.4920 N.am      10 UNK        -0.4242 
     38 C         -52.4891  -27.1692   16.0590 C.2       10 UNK         0.5072 
     39 O         -53.6242  -27.6516   16.1100 O.2       10 UNK        -0.5224 
     40 CA        -51.3726  -27.9938   15.3870 C.3       9 UNK         0.0343 
     41 CB        -51.7398  -28.2785   13.9240 C.3       9 UNK        -0.2003 
     42 N         -50.0579  -27.3551   15.4045 N.am      9 UNK        -0.4272 
     43 C         -49.2395  -27.2782   16.4608 C.2       9 UNK         0.4988 
     44 O         -49.4669  -27.8044   17.5501 O.2       9 UNK        -0.5108 
     45 CA        -47.9737  -26.4244   16.2742 C.3       8 UNK         0.0248 
     46 CB        -46.8361  -27.2593   15.6639 C.3       8 UNK        -0.2001 
     47 N         -48.2186  -25.2403   15.4427 N.am      8 UNK        -0.4140 
     48 C         -49.0057  -24.2139   15.7972 C.2       8 UNK         0.5028 
     49 O         -49.5840  -24.1360   16.8810 O.2       8 UNK        -0.5428 
     50 CA        -49.2236  -23.1124   14.7488 C.3       7 UNK         0.0264 
     51 CB        -48.0193  -22.1584   14.6984 C.3       7 UNK        -0.1988 
     52 N         -49.4833  -23.6465   13.4105 N.am      7 UNK        -0.4454 
     53 C         -50.5833  -24.3327   13.0618 C.2       7 UNK         0.5027 
     54 O         -51.5017  -24.6001   13.8343 O.2       7 UNK        -0.5083 
     55 CA        -50.6620  -24.8162   11.6005 C.3       6 UNK         0.0844 
     56 C56       -51.1913  -23.6594   10.7133 C.3       14 UNK        -0.0967 
     57 S57       -51.0645  -23.9575    8.9184 S.3       14 UNK        -0.2604 
     58 C58       -52.7203  -24.5877    8.5009 C.3       14 UNK         0.0134 
     59 N         -49.3939  -25.3677   11.1152 N.am      6 UNK        -0.4116 
     60 C         -48.6388  -26.3075   11.7029 C.2       5 UNK         0.5034 
     61 O         -48.9129  -26.8401   12.7784 O.2       5 UNK        -0.5045 
     62 CA        -47.3390  -26.7084   10.9845 C.3       5 UNK         0.0224 
     63 CB        -47.4921  -28.0965   10.3448 C.3       5 UNK        -0.1978 
     64 N         -46.9097  -25.7512    9.9590 N.am      5 UNK        -0.4737 
     65 C         -46.4750  -24.5061   10.1835 C.2       4 UNK         0.5027 
     66 O         -46.3780  -24.0142   11.3080 O.2       4 UNK        -0.5211 
     67 CA        -46.1250  -23.6529    8.9509 C.3       4 UNK         0.0297 
     68 CB        -44.7425  -24.0371    8.3885 C.3       4 UNK        -0.1993 
     69 N         -47.1519  -23.6394    7.8945 N.am      4 UNK        -0.4486 
     70 C         -47.5662  -24.6400    7.1022 C.2       3 UNK         0.4961 
     71 O         -47.1610  -25.8012    7.1981 O.2       3 UNK        -0.5105 
     72 CA        -48.6369  -24.3059    6.0413 C.3       3 UNK         0.0299 
     73 CB        -48.8030  -22.7977    5.7467 C.3       3 UNK        -0.1972 
     74 N         -48.4153  -25.0691    4.8102 N.am      3 UNK        -0.4305 
     75 C         -47.3497  -25.0174    3.9980 C.2       2 UNK         0.5006 
     76 O         -46.4519  -24.1768    4.0816 O.2       2 UNK        -0.5106 
     77 CA        -47.2571  -26.1473    2.9529 C.3       2 UNK         0.0296 
     78 CB        -46.0961  -25.9504    1.9602 C.3       2 UNK        -0.2002 
     79 N         -47.0914  -27.4364    3.6283 N.am      2 UNK        -0.4032 
     80 C         -48.0659  -28.1251    4.2375 C.2       1 UNK         0.5000 
     81 O         -49.2543  -27.8069    4.1532 O.2       1 UNK        -0.5238 
     82 H82       -43.9699  -27.2526    6.8762 H         1 UNK         0.0889 
     83 H83       -43.9044  -28.8959    7.5218 H         1 UNK         0.0889 
     84 H84       -45.2244  -27.8112    7.9780 H         1 UNK         0.0889 
     85 H85       -47.0802  -28.7008    7.0520 H         1 UNK         0.3028 
     86 H86       -47.1075  -30.0031    4.4517 H         1 UNK         0.0864 
     87 H87       -48.4311  -31.0742    6.0975 H         1 UNK         0.0720 
     88 H88       -49.5564  -30.3470    4.9992 H         1 UNK         0.0720 
     89 H89       -51.7470  -30.0008    6.3921 H         1 UNK         0.0814 
     90 H90       -51.2576  -28.5027    5.6401 H         1 UNK         0.0814 
     91 H91       -51.3665  -26.3397    6.9308 H         1 UNK         0.1469 
     92 H92       -54.2298  -26.2052   10.1226 H         1 UNK         0.1381 
     93 H93       -53.0443  -29.9760    8.4543 H         1 UNK         0.1206 
     94 H94       -55.3792  -28.2000   10.8070 H         1 UNK         0.0813 
     95 H95       -55.3391  -29.5487    9.6939 H         1 UNK         0.0813 
     96 H96       -56.1030  -30.7422   11.6264 H         1 UNK         0.0638 
     97 H97       -54.9451  -31.9878   11.9572 H         1 UNK         0.0638 
     98 H98       -56.3410  -31.4412   13.8926 H         1 UNK         0.0568 
     99 H99       -53.1182  -31.0547   16.1634 H         1 UNK         0.3450 
    100 H100      -54.0809  -29.6703   15.7077 H         1 UNK         0.3450 
    101 H101      -55.5515  -28.6787   13.4758 H         1 UNK         0.2987 
    102 H102      -58.0434  -27.5002   14.7156 H         1 UNK         0.0766 
    103 H103      -57.6555  -26.2770   16.8769 H         1 UNK         0.0798 
    104 H104      -56.4965  -27.5114   17.3625 H         1 UNK         0.0798 
    105 H105      -58.1954  -27.9243   17.1509 H         1 UNK         0.0798 
    106 H106      -55.1480  -26.8946   15.1614 H         1 UNK         0.3198 
    107 H107      -54.6051  -25.0482   12.8753 H         1 UNK         0.0843 
    108 H108      -56.1367  -22.8598   14.3769 H         1 UNK         0.0831 
    109 H109      -56.2162  -23.1879   12.6519 H         1 UNK         0.0831 
    110 H110      -54.7236  -22.5916   13.3564 H         1 UNK         0.0831 
    111 H111      -53.1555  -24.9443   14.5380 H         1 UNK         0.3133 
    112 H112      -52.5038  -24.0182   17.1808 H         1 UNK         0.0566 
    113 H113      -52.6806  -25.6148   19.1130 H         1 UNK         0.0814 
    114 H114      -54.0971  -24.5865   18.9856 H         1 UNK         0.0814 
    115 H115      -54.1802  -26.2560   18.4419 H         1 UNK         0.0814 
    116 H116      -51.2308  -25.6170   16.3656 H         1 UNK         0.3091 
    117 H117      -51.3061  -28.9446   15.9190 H         1 UNK         0.0702 
    118 H118      -52.7122  -28.7614   13.8595 H         1 UNK         0.0785 
    119 H119      -51.7932  -27.3646   13.3325 H         1 UNK         0.0785 
    120 H120      -51.0158  -28.9423   13.4511 H         1 UNK         0.0785 
    121 H121      -49.7438  -26.9523   14.5253 H         1 UNK         0.2998 
    122 H122      -47.6552  -26.0819   17.2612 H         1 UNK         0.0697 
    123 H123      -47.0893  -27.6257   14.6683 H         1 UNK         0.0825 
    124 H124      -46.6174  -28.1297   16.2841 H         1 UNK         0.0825 
    125 H125      -45.9161  -26.6800   15.5850 H         1 UNK         0.0825 
    126 H126      -47.8199  -25.2442   14.5149 H         1 UNK         0.3029 
    127 H127      -50.1005  -22.5373   15.0551 H         1 UNK         0.0897 
    128 H128      -48.2085  -21.3172   14.0312 H         1 UNK         0.0792 
    129 H129      -47.1150  -22.6620   14.3538 H         1 UNK         0.0792 
    130 H130      -47.8074  -21.7451   15.6856 H         1 UNK         0.0792 
    131 H131      -48.7684  -23.4949   12.7119 H         1 UNK         0.3086 
    132 H132      -51.3865  -25.6320   11.5606 H         1 UNK         0.0583 
    133 H133      -52.2253  -23.4264   10.9748 H         1 UNK         0.1020 
    134 H134      -50.6303  -22.7420   10.9050 H         1 UNK         0.1020 
    135 H135      -53.4730  -24.1453    9.1548 H         1 UNK         0.0694 
    136 H136      -52.9680  -24.2556    7.4917 H         1 UNK         0.0694 
    137 H137      -49.0859  -25.0164   10.2207 H         1 UNK         0.2989 
    138 H138      -46.5576  -26.7619   11.7457 H         1 UNK         0.1055 
    139 H139      -47.8136  -28.8348   11.0811 H         1 UNK         0.0806 
    140 H140      -46.5498  -28.4498    9.9273 H         1 UNK         0.0806 
    141 H141      -48.2354  -28.0877    9.5475 H         1 UNK         0.0806 
    142 H142      -46.9860  -26.0378    8.9839 H         1 UNK         0.3061 
    143 H143      -46.0544  -22.6215    9.3008 H         1 UNK         0.0734 
    144 H144      -44.4531  -23.3812    7.5675 H         1 UNK         0.0832 
    145 H145      -43.9731  -23.9539    9.1571 H         1 UNK         0.0832 
    146 H146      -44.7203  -25.0625    8.0195 H         1 UNK         0.0832 
    147 H147      -47.5855  -22.7390    7.7437 H         1 UNK         0.3156 
    148 H148      -49.5826  -24.6696    6.4425 H         1 UNK         0.0589 
    149 H149      -47.8656  -22.3328    5.4389 H         1 UNK         0.0808 
    150 H150      -49.5286  -22.6334    4.9499 H         1 UNK         0.0808 
    151 H151      -49.1723  -22.2607    6.6212 H         1 UNK         0.0808 
    152 H152      -49.0362  -25.8614    4.6741 H         1 UNK         0.3098 
    153 H153      -48.1892  -26.1539    2.3837 H         1 UNK         0.0720 
    154 H154      -46.0821  -26.7379    1.2066 H         1 UNK         0.0791 
    155 H155      -45.1284  -25.9515    2.4637 H         1 UNK         0.0791 
    156 H156      -46.1902  -24.9998    1.4334 H         1 UNK         0.0791 
    157 H157      -46.1384  -27.7420    3.8040 H         1 UNK         0.3028 
@<TRIPOS>BOND
     1    1    2 1    
     2    1   82 1    
     3    1   83 1    
     4    1   84 1    
     5    2    3 2    
     6    2    4 am   BACKBONE|DICT|INTERRES
     7    4    5 1    
     8    4   85 1    
     9    5    6 1    
    10    5   80 1    
    11    5   86 1    
    12    6    7 1    
    13    6   87 1    
    14    6   88 1    
    15    7    8 1    
    16    8    9 1    
    17    8   89 1    
    18    8   90 1    
    19    9   10 ar   
    20    9   14 ar   
    21   10   11 ar   
    22   10   91 1    
    23   11   12 ar   
    24   11   58 1    
    25   12   13 ar   
    26   12   92 1    
    27   13   14 ar   
    28   13   15 1    
    29   14   93 1    
    30   15   16 1    
    31   15   94 1    
    32   15   95 1    
    33   16   17 1    
    34   17   18 1    
    35   17   96 1    
    36   17   97 1    
    37   18   19 1    
    38   18   22 1    
    39   18   98 1    
    40   19   20 am   BACKBONE|DICT|INTERRES
    41   19   21 2    
    42   20   99 1    
    43   20  100 1    
    44   22   23 am   BACKBONE|DICT|INTERRES
    45   22  101 1    
    46   23   24 2    
    47   23   25 1    
    48   25   26 1    
    49   25   27 1    
    50   25  102 1    
    51   26  103 1    
    52   26  104 1    
    53   26  105 1    
    54   27   28 am   BACKBONE|DICT|INTERRES
    55   27  106 1    
    56   28   29 2    
    57   28   30 1    
    58   30   31 1    
    59   30   32 1    
    60   30  107 1    
    61   31  108 1    
    62   31  109 1    
    63   31  110 1    
    64   32   33 am   BACKBONE|DICT|INTERRES
    65   32  111 1    
    66   33   34 2    
    67   33   35 1    
    68   35   36 1    
    69   35   37 1    
    70   35  112 1    
    71   36  113 1    
    72   36  114 1    
    73   36  115 1    
    74   37   38 am   BACKBONE|DICT|INTERRES
    75   37  116 1    
    76   38   39 2    
    77   38   40 1    
    78   40   41 1    
    79   40   42 1    
    80   40  117 1    
    81   41  118 1    
    82   41  119 1    
    83   41  120 1    
    84   42   43 am   BACKBONE|DICT|INTERRES
    85   42  121 1    
    86   43   44 2    
    87   43   45 1    
    88   45   46 1    
    89   45   47 1    
    90   45  122 1    
    91   46  123 1    
    92   46  124 1    
    93   46  125 1    
    94   47   48 am   BACKBONE|DICT|INTERRES
    95   47  126 1    
    96   48   49 2    
    97   48   50 1    
    98   50   51 1    
    99   50   52 1    
   100   50  127 1    
   101   51  128 1    
   102   51  129 1    
   103   51  130 1    
   104   52   53 am   BACKBONE|DICT|INTERRES
   105   52  131 1    
   106   53   54 2    
   107   53   55 1    
   108   55   56 1    
   109   55   59 1    
   110   55  132 1    
   111   56   57 1    
   112   56  133 1    
   113   56  134 1    
   114   57   58 1    
   115   58  135 1    
   116   58  136 1    
   117   59   60 am   BACKBONE|DICT|INTERRES
   118   59  137 1    
   119   60   61 2    
   120   60   62 1    
   121   62   63 1    
   122   62   64 1    
   123   62  138 1    
   124   63  139 1    
   125   63  140 1    
   126   63  141 1    
   127   64   65 am   BACKBONE|DICT|INTERRES
   128   64  142 1    
   129   65   66 2    
   130   65   67 1    
   131   67   68 1    
   132   67   69 1    
   133   67  143 1    
   134   68  144 1    
   135   68  145 1    
   136   68  146 1    
   137   69   70 am   BACKBONE|DICT|INTERRES
   138   69  147 1    
   139   70   71 2    
   140   70   72 1    
   141   72   73 1    
   142   72   74 1    
   143   72  148 1    
   144   73  149 1    
   145   73  150 1    
   146   73  151 1    
   147   74   75 am   BACKBONE|DICT|INTERRES
   148   74  152 1    
   149   75   76 2    
   150   75   77 1    
   151   77   78 1    
   152   77   79 1    
   153   77  153 1    
   154   78  154 1    
   155   78  155 1    
   156   78  156 1    
   157   79   80 am   BACKBONE|DICT|INTERRES
   158   79  157 1    
   159   80   81 2    
@<TRIPOS>SUBSTRUCTURE
     1 UNK         1 GROUP             0       ****    0 ROOT    
