@<TRIPOS>MOLECULE
3R207
157   159    1
SMALL
USER_CHARGES


@<TRIPOS>ATOM
      1 CA        -49.9939  -28.6590    0.6147 C.3       0 UNK        -0.1975 
      2 C         -50.3131  -27.7207    1.7690 C.2       0 UNK         0.4852 
      3 O         -50.7224  -26.5826    1.5368 O.2       0 UNK        -0.5216 
      4 N         -50.1269  -28.1887    3.0111 N.am      1 UNK        -0.4461 
      5 CA        -50.4007  -27.4369    4.2454 C.3       1 UNK         0.0864 
      6 C6        -50.4539  -28.3634    5.4863 C.3       14 UNK        -0.0898 
      7 S7        -51.7407  -29.6445    5.3271 S.3       14 UNK        -0.2598 
      8 C8        -51.2376  -30.8265    6.6237 C.3       14 UNK         0.0286 
      9 C9        -51.3374  -30.2686    8.0417 C.ar      14 UNK        -0.0844 
     10 C10       -50.3151  -30.5216    8.9626 C.ar      14 UNK        -0.0881 
     11 C11       -50.4054  -30.0485   10.2755 C.ar      14 UNK        -0.0643 
     12 C12       -51.5330  -29.3225   10.6702 C.ar      14 UNK        -0.0930 
     13 C13       -52.5551  -29.0473    9.7576 C.ar      14 UNK        -0.0827 
     14 C14       -52.4545  -29.5311    8.4502 C.ar      14 UNK        -0.1249 
     15 C15       -53.7518  -28.1963   10.1588 C.3       14 UNK         0.0141 
     16 S16       -55.2931  -29.1610   10.2153 S.3       14 UNK        -0.2313 
     17 C17       -55.2578  -29.8524   11.9032 C.3       14 UNK        -0.0915 
     18 CA        -56.2572  -29.1202   12.8427 C.3       13 UNK         0.0968 
     19 C         -56.5590  -29.9483   14.1221 C.2       13 UNK         0.5732 
     20 N         -56.3996  -29.4246   15.3287 N.am      13 UNK        -0.7310 
     21 O         -56.9802  -31.0982   14.0191 O.2       13 UNK        -0.5035 
     22 N         -55.8305  -27.7289   13.0873 N.am      13 UNK        -0.4233 
     23 C         -56.5206  -26.6460   12.7058 C.2       13 UNK         0.4989 
     24 O         -57.6793  -26.6796   12.2855 O.2       13 UNK        -0.4996 
     25 CA        -55.7591  -25.3064   12.7470 C.3       12 UNK         0.0216 
     26 CB        -56.6185  -24.0986   12.3125 C.3       12 UNK        -0.1964 
     27 N         -55.0972  -25.0509   14.0291 N.am      12 UNK        -0.4276 
     28 C         -55.6736  -24.8526   15.2233 C.2       12 UNK         0.5020 
     29 O         -56.8905  -24.8704   15.4190 O.2       12 UNK        -0.5489 
     30 CA        -54.7021  -24.5996   16.3939 C.3       11 UNK         0.0294 
     31 CB        -55.4085  -24.4921   17.7623 C.3       11 UNK        -0.2019 
     32 N         -53.6213  -25.5912   16.4382 N.am      11 UNK        -0.4493 
     33 C         -53.7535  -26.9204   16.5625 C.2       11 UNK         0.4932 
     34 O         -54.8363  -27.4813   16.7206 O.2       11 UNK        -0.5029 
     35 CA        -52.4884  -27.7917   16.4520 C.3       10 UNK         0.0280 
     36 CB        -52.5496  -28.6510   15.1762 C.3       10 UNK        -0.1976 
     37 N         -51.2413  -27.0243   16.4485 N.am      10 UNK        -0.4242 
     38 C         -50.6818  -26.4542   17.5243 C.2       10 UNK         0.5072 
     39 O         -51.1251  -26.5638   18.6681 O.2       10 UNK        -0.5224 
     40 CA        -49.4359  -25.5838   17.2770 C.3       9 UNK         0.0343 
     41 CB        -48.1711  -26.4540   17.2162 C.3       9 UNK        -0.2003 
     42 N         -49.5320  -24.7590   16.0661 N.am      9 UNK        -0.4272 
     43 C         -50.4548  -23.8034   15.8703 C.2       9 UNK         0.4988 
     44 O         -51.3210  -23.5082   16.6934 O.2       9 UNK        -0.5108 
     45 CA        -50.4433  -23.0822   14.5136 C.3       8 UNK         0.0248 
     46 CB        -49.3080  -22.0480   14.4511 C.3       8 UNK        -0.2001 
     47 N         -50.3391  -24.0116   13.3882 N.am      8 UNK        -0.4140 
     48 C         -51.2654  -24.9283   13.0732 C.2       8 UNK         0.5028 
     49 O         -52.3484  -25.0387   13.6497 O.2       8 UNK        -0.5428 
     50 CA        -50.9072  -25.9326   11.9677 C.3       7 UNK         0.0264 
     51 CB        -51.1352  -25.3392   10.5705 C.3       7 UNK        -0.1988 
     52 N         -49.5387  -26.4431   12.0854 N.am      7 UNK        -0.4454 
     53 C         -49.0916  -27.1582   13.1309 C.2       7 UNK         0.5027 
     54 O         -49.8047  -27.5061   14.0701 O.2       7 UNK        -0.5083 
     55 CA        -47.5888  -27.4965   13.1783 C.3       6 UNK         0.0844 
     56 C56       -47.2408  -28.9024   12.6212 C.3       14 UNK        -0.0967 
     57 S57       -47.8436  -29.2564   10.9356 S.3       14 UNK        -0.2604 
     58 C58       -49.2855  -30.3189   11.2686 C.3       14 UNK         0.0134 
     59 N         -46.7774  -26.4108   12.6195 N.am      6 UNK        -0.4116 
     60 C         -46.5921  -25.2426   13.2566 C.2       5 UNK         0.5034 
     61 O         -47.0729  -24.9819   14.3608 O.2       5 UNK        -0.5045 
     62 CA        -45.7638  -24.1687   12.5339 C.3       5 UNK         0.0224 
     63 CB        -44.2658  -24.5113   12.5749 C.3       5 UNK        -0.1978 
     64 N         -46.1845  -23.9548   11.1486 N.am      5 UNK        -0.4737 
     65 C         -47.3958  -23.5181   10.7753 C.2       4 UNK         0.5027 
     66 O         -48.2917  -23.2278   11.5655 O.2       4 UNK        -0.5211 
     67 CA        -47.6664  -23.4171    9.2644 C.3       4 UNK         0.0297 
     68 CB        -47.3292  -22.0087    8.7518 C.3       4 UNK        -0.1993 
     69 N         -46.9462  -24.4118    8.4646 N.am      4 UNK        -0.4486 
     70 C         -47.0462  -25.7398    8.6007 C.2       3 UNK         0.4961 
     71 O         -47.7590  -26.2826    9.4466 O.2       3 UNK        -0.5105 
     72 CA        -46.1984  -26.5818    7.6261 C.3       3 UNK         0.0299 
     73 CB        -46.1822  -28.0760    7.9910 C.3       3 UNK        -0.1972 
     74 N         -46.6599  -26.4418    6.2447 N.am      3 UNK        -0.4305 
     75 C         -46.4754  -25.3746    5.4544 C.2       2 UNK         0.5006 
     76 O         -45.8392  -24.3764    5.7980 O.2       2 UNK        -0.5106 
     77 CA        -47.1036  -25.4182    4.0486 C.3       2 UNK         0.0296 
     78 CB        -46.0295  -25.7144    2.9892 C.3       2 UNK        -0.2002 
     79 N         -48.1899  -26.3950    3.9156 N.am      2 UNK        -0.4032 
     80 C         -49.4015  -26.2839    4.4832 C.2       1 UNK         0.5000 
     81 O         -49.7404  -25.3263    5.1804 O.2       1 UNK        -0.5238 
     82 H82       -49.6450  -29.6310    0.9630 H         1 UNK         0.0889 
     83 H83       -49.2184  -28.2266   -0.0171 H         1 UNK         0.0889 
     84 H84       -50.8823  -28.8173    0.0040 H         1 UNK         0.0889 
     85 H85       -49.8230  -29.1435    3.1412 H         1 UNK         0.3028 
     86 H86       -51.3836  -26.9731    4.1342 H         1 UNK         0.0864 
     87 H87       -50.6682  -27.7887    6.3902 H         1 UNK         0.0720 
     88 H88       -49.4888  -28.8470    5.6496 H         1 UNK         0.0720 
     89 H89       -50.2227  -31.1663    6.4115 H         1 UNK         0.0814 
     90 H90       -51.8763  -31.7079    6.5560 H         1 UNK         0.0814 
     91 H91       -49.4436  -31.0874    8.6625 H         1 UNK         0.1469 
     92 H92       -51.6053  -28.9663   11.6875 H         1 UNK         0.1381 
     93 H93       -53.2517  -29.3284    7.7482 H         1 UNK         0.1206 
     94 H94       -53.8708  -27.3945    9.4288 H         1 UNK         0.0813 
     95 H95       -53.5880  -27.7067   11.1190 H         1 UNK         0.0813 
     96 H96       -55.5112  -30.9099   11.8095 H         1 UNK         0.0638 
     97 H97       -54.2441  -29.8196   12.3062 H         1 UNK         0.0638 
     98 H98       -57.2180  -29.1097   12.3251 H         1 UNK         0.0568 
     99 H99       -56.0238  -28.4965   15.4800 H         1 UNK         0.3450 
    100 H100      -56.6208  -29.9936   16.1294 H         1 UNK         0.3450 
    101 H101      -54.9090  -27.6078   13.4770 H         1 UNK         0.2987 
    102 H102      -54.9549  -25.4020   12.0156 H         1 UNK         0.0766 
    103 H103      -57.4782  -23.9532   12.9672 H         1 UNK         0.0798 
    104 H104      -56.0363  -23.1771   12.3131 H         1 UNK         0.0798 
    105 H105      -57.0024  -24.2372   11.3010 H         1 UNK         0.0798 
    106 H106      -54.0751  -25.0279   13.9876 H         1 UNK         0.3198 
    107 H107      -54.2256  -23.6385   16.1935 H         1 UNK         0.0843 
    108 H108      -55.9472  -25.4057   18.0154 H         1 UNK         0.0831 
    109 H109      -56.1342  -23.6780   17.7621 H         1 UNK         0.0831 
    110 H110      -54.6949  -24.2903   18.5610 H         1 UNK         0.0831 
    111 H111      -52.6900  -25.2184   16.2967 H         1 UNK         0.3133 
    112 H112      -52.4779  -28.4619   17.3138 H         1 UNK         0.0566 
    113 H113      -51.6876  -29.3145   15.1047 H         1 UNK         0.0814 
    114 H114      -53.4395  -29.2813   15.1661 H         1 UNK         0.0814 
    115 H115      -52.5703  -28.0343   14.2769 H         1 UNK         0.0814 
    116 H116      -50.7613  -26.9532   15.5529 H         1 UNK         0.3091 
    117 H117      -49.3367  -24.9033   18.1252 H         1 UNK         0.0702 
    118 H118      -47.2755  -25.8467   17.0834 H         1 UNK         0.0785 
    119 H119      -48.2155  -27.1715   16.3973 H         1 UNK         0.0785 
    120 H120      -48.0447  -27.0215   18.1391 H         1 UNK         0.0785 
    121 H121      -48.8265  -24.9122   15.3515 H         1 UNK         0.2998 
    122 H122      -51.3912  -22.5490   14.4137 H         1 UNK         0.0697 
    123 H123      -48.3258  -22.5197   14.4970 H         1 UNK         0.0825 
    124 H124      -49.3731  -21.3442   15.2819 H         1 UNK         0.0825 
    125 H125      -49.3540  -21.4670   13.5298 H         1 UNK         0.0825 
    126 H126      -49.5035  -23.9369   12.8115 H         1 UNK         0.3029 
    127 H127      -51.5833  -26.7775   12.0877 H         1 UNK         0.0897 
    128 H128      -50.5079  -24.4658   10.3966 H         1 UNK         0.0792 
    129 H129      -52.1725  -25.0260   10.4456 H         1 UNK         0.0792 
    130 H130      -50.9191  -26.0699    9.7901 H         1 UNK         0.0792 
    131 H131      -48.9007  -26.2455   11.3214 H         1 UNK         0.3086 
    132 H132      -47.3321  -27.5463   14.2384 H         1 UNK         0.0583 
    133 H133      -46.1580  -29.0363   12.6247 H         1 UNK         0.1020 
    134 H134      -47.6175  -29.6673   13.3025 H         1 UNK         0.1020 
    135 H135      -48.9822  -31.3654   11.2137 H         1 UNK         0.0694 
    136 H136      -49.6473  -30.1563   12.2851 H         1 UNK         0.0694 
    137 H137      -46.4182  -26.5377   11.6840 H         1 UNK         0.2989 
    138 H138      -45.9130  -23.2296   13.0718 H         1 UNK         0.1055 
    139 H139      -43.9297  -24.6666   13.6013 H         1 UNK         0.0806 
    140 H140      -43.6633  -23.7035   12.1589 H         1 UNK         0.0806 
    141 H141      -44.0392  -25.4206   12.0168 H         1 UNK         0.0806 
    142 H142      -45.5144  -24.1680   10.4242 H         1 UNK         0.3061 
    143 H143      -48.7328  -23.5889    9.1094 H         1 UNK         0.0734 
    144 H144      -46.2658  -21.7868    8.8490 H         1 UNK         0.0832 
    145 H145      -47.6027  -21.8917    7.7029 H         1 UNK         0.0832 
    146 H146      -47.8740  -21.2487    9.3139 H         1 UNK         0.0832 
    147 H147      -46.3808  -24.0685    7.6934 H         1 UNK         0.3156 
    148 H148      -45.1710  -26.2166    7.6867 H         1 UNK         0.0589 
    149 H149      -47.1828  -28.5104    7.9665 H         1 UNK         0.0808 
    150 H150      -45.5501  -28.6469    7.3108 H         1 UNK         0.0808 
    151 H151      -45.7863  -28.2237    8.9964 H         1 UNK         0.0808 
    152 H152      -47.2092  -27.2051    5.8807 H         1 UNK         0.3098 
    153 H153      -47.5158  -24.4268    3.8486 H         1 UNK         0.0720 
    154 H154      -46.4425  -25.6688    1.9812 H         1 UNK         0.0791 
    155 H155      -45.5855  -26.7011    3.1275 H         1 UNK         0.0791 
    156 H156      -45.2207  -24.9837    3.0383 H         1 UNK         0.0791 
    157 H157      -48.0059  -27.2078    3.3453 H         1 UNK         0.3028 
@<TRIPOS>BOND
     1    1    2 1    
     2    1   82 1    
     3    1   83 1    
     4    1   84 1    
     5    2    3 2    
     6    2    4 am   BACKBONE|DICT|INTERRES
     7    4    5 1    
     8    4   85 1    
     9    5    6 1    
    10    5   80 1    
    11    5   86 1    
    12    6    7 1    
    13    6   87 1    
    14    6   88 1    
    15    7    8 1    
    16    8    9 1    
    17    8   89 1    
    18    8   90 1    
    19    9   10 ar   
    20    9   14 ar   
    21   10   11 ar   
    22   10   91 1    
    23   11   12 ar   
    24   11   58 1    
    25   12   13 ar   
    26   12   92 1    
    27   13   14 ar   
    28   13   15 1    
    29   14   93 1    
    30   15   16 1    
    31   15   94 1    
    32   15   95 1    
    33   16   17 1    
    34   17   18 1    
    35   17   96 1    
    36   17   97 1    
    37   18   19 1    
    38   18   22 1    
    39   18   98 1    
    40   19   20 am   BACKBONE|DICT|INTERRES
    41   19   21 2    
    42   20   99 1    
    43   20  100 1    
    44   22   23 am   BACKBONE|DICT|INTERRES
    45   22  101 1    
    46   23   24 2    
    47   23   25 1    
    48   25   26 1    
    49   25   27 1    
    50   25  102 1    
    51   26  103 1    
    52   26  104 1    
    53   26  105 1    
    54   27   28 am   BACKBONE|DICT|INTERRES
    55   27  106 1    
    56   28   29 2    
    57   28   30 1    
    58   30   31 1    
    59   30   32 1    
    60   30  107 1    
    61   31  108 1    
    62   31  109 1    
    63   31  110 1    
    64   32   33 am   BACKBONE|DICT|INTERRES
    65   32  111 1    
    66   33   34 2    
    67   33   35 1    
    68   35   36 1    
    69   35   37 1    
    70   35  112 1    
    71   36  113 1    
    72   36  114 1    
    73   36  115 1    
    74   37   38 am   BACKBONE|DICT|INTERRES
    75   37  116 1    
    76   38   39 2    
    77   38   40 1    
    78   40   41 1    
    79   40   42 1    
    80   40  117 1    
    81   41  118 1    
    82   41  119 1    
    83   41  120 1    
    84   42   43 am   BACKBONE|DICT|INTERRES
    85   42  121 1    
    86   43   44 2    
    87   43   45 1    
    88   45   46 1    
    89   45   47 1    
    90   45  122 1    
    91   46  123 1    
    92   46  124 1    
    93   46  125 1    
    94   47   48 am   BACKBONE|DICT|INTERRES
    95   47  126 1    
    96   48   49 2    
    97   48   50 1    
    98   50   51 1    
    99   50   52 1    
   100   50  127 1    
   101   51  128 1    
   102   51  129 1    
   103   51  130 1    
   104   52   53 am   BACKBONE|DICT|INTERRES
   105   52  131 1    
   106   53   54 2    
   107   53   55 1    
   108   55   56 1    
   109   55   59 1    
   110   55  132 1    
   111   56   57 1    
   112   56  133 1    
   113   56  134 1    
   114   57   58 1    
   115   58  135 1    
   116   58  136 1    
   117   59   60 am   BACKBONE|DICT|INTERRES
   118   59  137 1    
   119   60   61 2    
   120   60   62 1    
   121   62   63 1    
   122   62   64 1    
   123   62  138 1    
   124   63  139 1    
   125   63  140 1    
   126   63  141 1    
   127   64   65 am   BACKBONE|DICT|INTERRES
   128   64  142 1    
   129   65   66 2    
   130   65   67 1    
   131   67   68 1    
   132   67   69 1    
   133   67  143 1    
   134   68  144 1    
   135   68  145 1    
   136   68  146 1    
   137   69   70 am   BACKBONE|DICT|INTERRES
   138   69  147 1    
   139   70   71 2    
   140   70   72 1    
   141   72   73 1    
   142   72   74 1    
   143   72  148 1    
   144   73  149 1    
   145   73  150 1    
   146   73  151 1    
   147   74   75 am   BACKBONE|DICT|INTERRES
   148   74  152 1    
   149   75   76 2    
   150   75   77 1    
   151   77   78 1    
   152   77   79 1    
   153   77  153 1    
   154   78  154 1    
   155   78  155 1    
   156   78  156 1    
   157   79   80 am   BACKBONE|DICT|INTERRES
   158   79  157 1    
   159   80   81 2    
@<TRIPOS>SUBSTRUCTURE
     1 UNK         1 GROUP             0       ****    0 ROOT    
