@<TRIPOS>MOLECULE
3R207
157   159    1
SMALL
USER_CHARGES


@<TRIPOS>ATOM
      1 CA        -50.1925  -29.9704    0.8778 C.3       0 UNK        -0.1975 
      2 C         -49.9970  -29.3306    2.2446 C.2       0 UNK         0.4852 
      3 O         -50.5867  -28.2844    2.5196 O.2       0 UNK        -0.5216 
      4 N         -49.1815  -29.9551    3.1044 N.am      1 UNK        -0.4461 
      5 CA        -48.8218  -29.4475    4.4319 C.3       1 UNK         0.0864 
      6 C6        -48.3163  -30.5947    5.3451 C.3       14 UNK        -0.0898 
      7 S7        -48.5412  -30.2160    7.1135 S.3       14 UNK        -0.2598 
      8 C8        -50.2756  -30.7092    7.3576 C.3       14 UNK         0.0286 
      9 C9        -50.9711  -29.7755    8.3344 C.ar      14 UNK        -0.0844 
     10 C10       -51.5038  -28.5626    7.8847 C.ar      14 UNK        -0.0881 
     11 C11       -52.1482  -27.6961    8.7727 C.ar      14 UNK        -0.0643 
     12 C12       -52.2718  -28.0615   10.1141 C.ar      14 UNK        -0.0930 
     13 C13       -51.7325  -29.2634   10.5795 C.ar      14 UNK        -0.0827 
     14 C14       -51.0824  -30.1184    9.6852 C.ar      14 UNK        -0.1249 
     15 C15       -51.8136  -29.6100   12.0579 C.3       14 UNK         0.0141 
     16 S16       -53.0687  -30.8723   12.4415 S.3       14 UNK        -0.2313 
     17 C17       -54.6175  -30.1195   11.8349 C.3       14 UNK        -0.0915 
     18 CA        -55.0413  -28.7949   12.5380 C.3       13 UNK         0.0968 
     19 C         -56.3345  -28.1973   11.9047 C.2       13 UNK         0.5732 
     20 N         -57.3280  -27.7553   12.6674 N.am      13 UNK        -0.7310 
     21 O         -56.4259  -28.0927   10.6841 O.2       13 UNK        -0.5035 
     22 N         -55.0340  -28.8522   14.0080 N.am      13 UNK        -0.4233 
     23 C         -55.7703  -29.6517   14.7897 C.2       13 UNK         0.4989 
     24 O         -56.4970  -30.5569   14.3790 O.2       13 UNK        -0.4996 
     25 CA        -55.7426  -29.3284   16.2940 C.3       12 UNK         0.0216 
     26 CB        -54.4386  -29.8243   16.9407 C.3       12 UNK        -0.1964 
     27 N         -55.9151  -27.8953   16.5624 N.am      12 UNK        -0.4276 
     28 C         -56.9773  -27.1575   16.2089 C.2       12 UNK         0.5020 
     29 O         -57.9739  -27.6229   15.6558 O.2       12 UNK        -0.5489 
     30 CA        -56.9082  -25.6382   16.4532 C.3       11 UNK         0.0294 
     31 CB        -57.2412  -25.2825   17.9159 C.3       11 UNK        -0.2019 
     32 N         -55.6489  -25.0276   15.9991 N.am      11 UNK        -0.4493 
     33 C         -54.4207  -25.1878   16.5071 C.2       11 UNK         0.4932 
     34 O         -54.1770  -25.8263   17.5345 O.2       11 UNK        -0.5029 
     35 CA        -53.2702  -24.5557   15.7061 C.3       10 UNK         0.0280 
     36 CB        -53.0002  -23.1208   16.1842 C.3       10 UNK        -0.1976 
     37 N         -52.0391  -25.3395   15.8167 N.am      10 UNK        -0.4242 
     38 C         -51.8969  -26.6146   15.4280 C.2       10 UNK         0.5072 
     39 O         -52.7661  -27.2501   14.8247 O.2       10 UNK        -0.5224 
     40 CA        -50.5631  -27.2765   15.8056 C.3       9 UNK         0.0343 
     41 CB        -50.3815  -28.6881   15.2223 C.3       9 UNK        -0.2003 
     42 N         -49.4496  -26.4356   15.3710 N.am      9 UNK        -0.4272 
     43 C         -48.6121  -25.7868   16.1879 C.2       9 UNK         0.4988 
     44 O         -48.6799  -25.8269   17.4170 O.2       9 UNK        -0.5108 
     45 CA        -47.5147  -24.9403   15.5258 C.3       8 UNK         0.0248 
     46 CB        -46.3456  -25.8342   15.0821 C.3       8 UNK        -0.2001 
     47 N         -47.9911  -24.1388   14.3935 N.am      8 UNK        -0.4140 
     48 C         -48.8611  -23.1221   14.4977 C.2       8 UNK         0.5028 
     49 O         -49.3900  -22.7797   15.5561 O.2       8 UNK        -0.5428 
     50 CA        -49.1863  -22.3404   13.2136 C.3       7 UNK         0.0264 
     51 CB        -48.0158  -21.4261   12.8158 C.3       7 UNK        -0.1988 
     52 N         -49.5255  -23.2157   12.0932 N.am      7 UNK        -0.4454 
     53 C         -50.6677  -23.9099   11.9885 C.2       7 UNK         0.5027 
     54 O         -51.5995  -23.8181   12.7869 O.2       7 UNK        -0.5083 
     55 CA        -50.7865  -24.8845   10.7984 C.3       6 UNK         0.0844 
     56 C56       -51.3879  -24.1712    9.5599 C.3       14 UNK        -0.0967 
     57 S57       -51.3858  -25.1469    8.0139 S.3       14 UNK        -0.2604 
     58 C58       -52.7088  -26.3696    8.2792 C.3       14 UNK         0.0134 
     59 N         -49.5246  -25.5753   10.5211 N.am      6 UNK        -0.4116 
     60 C         -48.8968  -26.3925   11.3796 C.2       5 UNK         0.5034 
     61 O         -49.3180  -26.6800   12.5002 O.2       5 UNK        -0.5045 
     62 CA        -47.5309  -26.9292   10.9345 C.3       5 UNK         0.0224 
     63 CB        -47.7006  -28.1458   10.0120 C.3       5 UNK        -0.1978 
     64 N         -46.7370  -25.8917   10.2698 N.am      5 UNK        -0.4737 
     65 C         -46.2084  -24.8367   10.9089 C.2       4 UNK         0.5027 
     66 O         -46.3018  -24.6593   12.1219 O.2       4 UNK        -0.5211 
     67 CA        -45.4994  -23.7731   10.0543 C.3       4 UNK         0.0297 
     68 CB        -44.0405  -24.1773    9.7914 C.3       4 UNK        -0.1993 
     69 N         -46.1760  -23.5200    8.7820 N.am      4 UNK        -0.4486 
     70 C         -47.4254  -23.0497    8.6584 C.2       3 UNK         0.4961 
     71 O         -48.1256  -22.7063    9.6103 O.2       3 UNK        -0.5105 
     72 CA        -48.0091  -22.9968    7.2355 C.3       3 UNK         0.0299 
     73 CB        -47.7969  -21.6045    6.6210 C.3       3 UNK        -0.1972 
     74 N         -47.4711  -24.0211    6.3301 N.am      3 UNK        -0.4305 
     75 C         -47.5693  -25.3429    6.5279 C.2       2 UNK         0.5006 
     76 O         -48.0809  -25.8557    7.5258 O.2       2 UNK        -0.5106 
     77 CA        -46.9425  -26.2469    5.4657 C.3       2 UNK         0.0296 
     78 CB        -45.4969  -26.6140    5.8502 C.3       2 UNK        -0.2002 
     79 N         -47.7630  -27.4478    5.3688 N.am      2 UNK        -0.4032 
     80 C         -47.8074  -28.2861    4.3289 C.2       1 UNK         0.5000 
     81 O         -47.0878  -28.1771    3.3307 O.2       1 UNK        -0.5238 
     82 H82       -51.2461  -30.1977    0.7170 H         1 UNK         0.0889 
     83 H83       -49.6266  -30.8963    0.7759 H         1 UNK         0.0889 
     84 H84       -49.8674  -29.2865    0.0942 H         1 UNK         0.0889 
     85 H85       -48.6955  -30.7892    2.8075 H         1 UNK         0.3028 
     86 H86       -49.7366  -29.0392    4.8679 H         1 UNK         0.0864 
     87 H87       -47.2640  -30.8176    5.1576 H         1 UNK         0.0720 
     88 H88       -48.8551  -31.5204    5.1346 H         1 UNK         0.0720 
     89 H89       -50.8132  -30.6997    6.4083 H         1 UNK         0.0814 
     90 H90       -50.3093  -31.7391    7.7161 H         1 UNK         0.0814 
     91 H91       -51.4080  -28.2845    6.8442 H         1 UNK         0.1469 
     92 H92       -52.7759  -27.3990   10.8004 H         1 UNK         0.1381 
     93 H93       -50.6604  -31.0476   10.0431 H         1 UNK         0.1206 
     94 H94       -50.8424  -29.9843   12.3825 H         1 UNK         0.0813 
     95 H95       -52.0091  -28.7156   12.6501 H         1 UNK         0.0813 
     96 H96       -55.4055  -30.8666   11.9390 H         1 UNK         0.0638 
     97 H97       -54.5054  -29.9610   10.7609 H         1 UNK         0.0638 
     98 H98       -54.2810  -28.0508   12.3123 H         1 UNK         0.0568 
     99 H99       -58.1415  -27.3628   12.2214 H         1 UNK         0.3450 
    100 H100      -57.3111  -27.8552   13.6740 H         1 UNK         0.3450 
    101 H101      -54.4167  -28.1764   14.4507 H         1 UNK         0.2987 
    102 H102      -56.5780  -29.8538   16.7614 H         1 UNK         0.0766 
    103 H103      -54.2902  -30.8886   16.7530 H         1 UNK         0.0798 
    104 H104      -54.4546  -29.6852   18.0218 H         1 UNK         0.0798 
    105 H105      -53.5663  -29.2999   16.5492 H         1 UNK         0.0798 
    106 H106      -55.1411  -27.4031   17.0016 H         1 UNK         0.3198 
    107 H107      -57.6857  -25.1904   15.8315 H         1 UNK         0.0843 
    108 H108      -56.5443  -25.7344   18.6220 H         1 UNK         0.0831 
    109 H109      -58.2384  -25.6366   18.1807 H         1 UNK         0.0831 
    110 H110      -57.2280  -24.2043   18.0748 H         1 UNK         0.0831 
    111 H111      -55.7272  -24.4940   15.1435 H         1 UNK         0.3133 
    112 H112      -53.5499  -24.5288   14.6510 H         1 UNK         0.0566 
    113 H113      -52.6829  -23.0956   17.2275 H         1 UNK         0.0814 
    114 H114      -53.8950  -22.5028   16.0991 H         1 UNK         0.0814 
    115 H115      -52.2228  -22.6462   15.5845 H         1 UNK         0.0814 
    116 H116      -51.2669  -24.9004   16.2970 H         1 UNK         0.3091 
    117 H117      -50.5766  -27.3752   16.8929 H         1 UNK         0.0702 
    118 H118      -49.5261  -29.1888   15.6756 H         1 UNK         0.0785 
    119 H119      -50.2044  -28.6488   14.1499 H         1 UNK         0.0785 
    120 H120      -51.2553  -29.3167   15.3986 H         1 UNK         0.0785 
    121 H121      -49.3373  -26.3430   14.3629 H         1 UNK         0.2998 
    122 H122      -47.1372  -24.2469   16.2802 H         1 UNK         0.0697 
    123 H123      -45.5094  -25.2390   14.7147 H         1 UNK         0.0825 
    124 H124      -46.6420  -26.5204   14.2879 H         1 UNK         0.0825 
    125 H125      -45.9737  -26.4354   15.9129 H         1 UNK         0.0825 
    126 H126      -47.5605  -24.3321   13.4916 H         1 UNK         0.3029 
    127 H127      -50.0517  -21.7074   13.4222 H         1 UNK         0.0897 
    128 H128      -47.1212  -21.9971   12.5649 H         1 UNK         0.0792 
    129 H129      -47.7546  -20.7492   13.6303 H         1 UNK         0.0792 
    130 H130      -48.2704  -20.8120   11.9517 H         1 UNK         0.0792 
    131 H131      -48.8505  -23.2764   11.3354 H         1 UNK         0.3086 
    132 H132      -51.4938  -25.6481   11.1145 H         1 UNK         0.0583 
    133 H133      -52.4107  -23.8520    9.7693 H         1 UNK         0.1020 
    134 H134      -50.8322  -23.2552    9.3494 H         1 UNK         0.1020 
    135 H135      -53.4542  -25.9751    8.9714 H         1 UNK         0.0694 
    136 H136      -53.2283  -26.5321    7.3338 H         1 UNK         0.0694 
    137 H137      -49.1193  -25.4265    9.6053 H         1 UNK         0.2989 
    138 H138      -46.9911  -27.2519   11.8277 H         1 UNK         0.1055 
    139 H139      -48.2188  -28.9547   10.5290 H         1 UNK         0.0806 
    140 H140      -46.7390  -28.5358    9.6789 H         1 UNK         0.0806 
    141 H141      -48.2916  -27.9067    9.1277 H         1 UNK         0.0806 
    142 H142      -46.7033  -25.9237    9.2586 H         1 UNK         0.3061 
    143 H143      -45.5000  -22.8398   10.6214 H         1 UNK         0.0734 
    144 H144      -43.9724  -25.0927    9.2020 H         1 UNK         0.0832 
    145 H145      -43.4999  -23.3934    9.2606 H         1 UNK         0.0832 
    146 H146      -43.5117  -24.3543   10.7292 H         1 UNK         0.0832 
    147 H147      -45.6777  -23.7683    7.9403 H         1 UNK         0.3156 
    148 H148      -49.0835  -23.1697    7.3211 H         1 UNK         0.0589 
    149 H149      -48.2938  -21.5163    5.6547 H         1 UNK         0.0808 
    150 H150      -46.7388  -21.3814    6.4784 H         1 UNK         0.0808 
    151 H151      -48.2095  -20.8273    7.2662 H         1 UNK         0.0808 
    152 H152      -47.0208  -23.6880    5.4892 H         1 UNK         0.3098 
    153 H153      -46.9511  -25.7284    4.5045 H         1 UNK         0.0720 
    154 H154      -44.8768  -25.7221    5.9474 H         1 UNK         0.0791 
    155 H155      -45.0326  -27.2476    5.0945 H         1 UNK         0.0791 
    156 H156      -45.4578  -27.1470    6.8014 H         1 UNK         0.0791 
    157 H157      -48.3658  -27.5994    6.1697 H         1 UNK         0.3028 
@<TRIPOS>BOND
     1    1    2 1    
     2    1   82 1    
     3    1   83 1    
     4    1   84 1    
     5    2    3 2    
     6    2    4 am   BACKBONE|DICT|INTERRES
     7    4    5 1    
     8    4   85 1    
     9    5    6 1    
    10    5   80 1    
    11    5   86 1    
    12    6    7 1    
    13    6   87 1    
    14    6   88 1    
    15    7    8 1    
    16    8    9 1    
    17    8   89 1    
    18    8   90 1    
    19    9   10 ar   
    20    9   14 ar   
    21   10   11 ar   
    22   10   91 1    
    23   11   12 ar   
    24   11   58 1    
    25   12   13 ar   
    26   12   92 1    
    27   13   14 ar   
    28   13   15 1    
    29   14   93 1    
    30   15   16 1    
    31   15   94 1    
    32   15   95 1    
    33   16   17 1    
    34   17   18 1    
    35   17   96 1    
    36   17   97 1    
    37   18   19 1    
    38   18   22 1    
    39   18   98 1    
    40   19   20 am   BACKBONE|DICT|INTERRES
    41   19   21 2    
    42   20   99 1    
    43   20  100 1    
    44   22   23 am   BACKBONE|DICT|INTERRES
    45   22  101 1    
    46   23   24 2    
    47   23   25 1    
    48   25   26 1    
    49   25   27 1    
    50   25  102 1    
    51   26  103 1    
    52   26  104 1    
    53   26  105 1    
    54   27   28 am   BACKBONE|DICT|INTERRES
    55   27  106 1    
    56   28   29 2    
    57   28   30 1    
    58   30   31 1    
    59   30   32 1    
    60   30  107 1    
    61   31  108 1    
    62   31  109 1    
    63   31  110 1    
    64   32   33 am   BACKBONE|DICT|INTERRES
    65   32  111 1    
    66   33   34 2    
    67   33   35 1    
    68   35   36 1    
    69   35   37 1    
    70   35  112 1    
    71   36  113 1    
    72   36  114 1    
    73   36  115 1    
    74   37   38 am   BACKBONE|DICT|INTERRES
    75   37  116 1    
    76   38   39 2    
    77   38   40 1    
    78   40   41 1    
    79   40   42 1    
    80   40  117 1    
    81   41  118 1    
    82   41  119 1    
    83   41  120 1    
    84   42   43 am   BACKBONE|DICT|INTERRES
    85   42  121 1    
    86   43   44 2    
    87   43   45 1    
    88   45   46 1    
    89   45   47 1    
    90   45  122 1    
    91   46  123 1    
    92   46  124 1    
    93   46  125 1    
    94   47   48 am   BACKBONE|DICT|INTERRES
    95   47  126 1    
    96   48   49 2    
    97   48   50 1    
    98   50   51 1    
    99   50   52 1    
   100   50  127 1    
   101   51  128 1    
   102   51  129 1    
   103   51  130 1    
   104   52   53 am   BACKBONE|DICT|INTERRES
   105   52  131 1    
   106   53   54 2    
   107   53   55 1    
   108   55   56 1    
   109   55   59 1    
   110   55  132 1    
   111   56   57 1    
   112   56  133 1    
   113   56  134 1    
   114   57   58 1    
   115   58  135 1    
   116   58  136 1    
   117   59   60 am   BACKBONE|DICT|INTERRES
   118   59  137 1    
   119   60   61 2    
   120   60   62 1    
   121   62   63 1    
   122   62   64 1    
   123   62  138 1    
   124   63  139 1    
   125   63  140 1    
   126   63  141 1    
   127   64   65 am   BACKBONE|DICT|INTERRES
   128   64  142 1    
   129   65   66 2    
   130   65   67 1    
   131   67   68 1    
   132   67   69 1    
   133   67  143 1    
   134   68  144 1    
   135   68  145 1    
   136   68  146 1    
   137   69   70 am   BACKBONE|DICT|INTERRES
   138   69  147 1    
   139   70   71 2    
   140   70   72 1    
   141   72   73 1    
   142   72   74 1    
   143   72  148 1    
   144   73  149 1    
   145   73  150 1    
   146   73  151 1    
   147   74   75 am   BACKBONE|DICT|INTERRES
   148   74  152 1    
   149   75   76 2    
   150   75   77 1    
   151   77   78 1    
   152   77   79 1    
   153   77  153 1    
   154   78  154 1    
   155   78  155 1    
   156   78  156 1    
   157   79   80 am   BACKBONE|DICT|INTERRES
   158   79  157 1    
   159   80   81 2    
@<TRIPOS>SUBSTRUCTURE
     1 UNK         1 GROUP             0       ****    0 ROOT    
