@<TRIPOS>MOLECULE
3R207
157   159    1
SMALL
USER_CHARGES


@<TRIPOS>ATOM
      1 CA        -47.0201  -30.8416    9.4972 C.3       0 UNK        -0.1975 
      2 C         -47.2744  -30.7873    7.9978 C.2       0 UNK         0.4852 
      3 O         -46.6004  -31.4805    7.2353 O.2       0 UNK        -0.5216 
      4 N         -48.2419  -29.9639    7.5720 N.am      1 UNK        -0.4461 
      5 CA        -48.6307  -29.7644    6.1669 C.3       1 UNK         0.0864 
      6 C6        -49.9945  -29.0397    6.0437 C.3       14 UNK        -0.0898 
      7 S7        -51.3537  -29.9105    6.8982 S.3       14 UNK        -0.2598 
      8 C8        -51.5738  -28.9013    8.3993 C.3       14 UNK         0.0286 
      9 C9        -52.5877  -27.7805    8.2115 C.ar      14 UNK        -0.0844 
     10 C10       -52.2401  -26.6104    7.5301 C.ar      14 UNK        -0.0881 
     11 C11       -53.1485  -25.5549    7.4148 C.ar      14 UNK        -0.0643 
     12 C12       -54.4155  -25.6719    7.9913 C.ar      14 UNK        -0.0930 
     13 C13       -54.7792  -26.8368    8.6722 C.ar      14 UNK        -0.0827 
     14 C14       -53.8661  -27.8923    8.7669 C.ar      14 UNK        -0.1249 
     15 C15       -56.1548  -26.9415    9.3138 C.3       14 UNK         0.0141 
     16 S16       -56.0679  -26.6696   11.1125 S.3       14 UNK        -0.2313 
     17 C17       -55.6477  -28.3425   11.7101 C.3       14 UNK        -0.0915 
     18 CA        -56.4399  -28.7270   12.9860 C.3       13 UNK         0.0968 
     19 C         -56.2871  -30.2408   13.3191 C.2       13 UNK         0.5732 
     20 N         -55.8321  -30.6372   14.5025 N.am      13 UNK        -0.7310 
     21 O         -56.6077  -31.0838   12.4846 O.2       13 UNK        -0.5035 
     22 N         -56.1034  -27.8396   14.1067 N.am      13 UNK        -0.4233 
     23 C         -56.9423  -27.4974   15.0914 C.2       13 UNK         0.4989 
     24 O         -58.1343  -27.8110   15.1100 O.2       13 UNK        -0.4996 
     25 CA        -56.3518  -26.6684   16.2529 C.3       12 UNK         0.0216 
     26 CB        -57.1628  -26.8143   17.5581 C.3       12 UNK        -0.1964 
     27 N         -54.9285  -26.9283   16.5059 N.am      12 UNK        -0.4276 
     28 C         -54.3529  -28.1058   16.7866 C.2       12 UNK         0.5020 
     29 O         -54.9586  -29.1764   16.8713 O.2       12 UNK        -0.5489 
     30 CA        -52.8256  -28.0821   16.9556 C.3       11 UNK         0.0294 
     31 CB        -52.3944  -28.8781   18.1994 C.3       11 UNK        -0.2019 
     32 N         -52.0805  -28.5794   15.7941 N.am      11 UNK        -0.4493 
     33 C         -52.2775  -28.3014   14.4966 C.2       11 UNK         0.4932 
     34 O         -53.2388  -27.6778   14.0480 O.2       11 UNK        -0.5029 
     35 CA        -51.1328  -28.7150   13.5552 C.3       10 UNK         0.0280 
     36 CB        -51.5071  -28.6008   12.0657 C.3       10 UNK        -0.1976 
     37 N         -49.9881  -27.8468   13.8219 N.am      10 UNK        -0.4242 
     38 C         -49.1293  -27.9990   14.8395 C.2       10 UNK         0.5072 
     39 O         -49.0879  -28.9999   15.5569 O.2       10 UNK        -0.5224 
     40 CA        -48.2310  -26.7979   15.1617 C.3       9 UNK         0.0343 
     41 CB        -46.9971  -26.7627   14.2482 C.3       9 UNK        -0.2003 
     42 N         -48.9781  -25.5412   15.0536 N.am      9 UNK        -0.4272 
     43 C         -49.7956  -25.0710   16.0072 C.2       9 UNK         0.4988 
     44 O         -49.9784  -25.6263   17.0909 O.2       9 UNK        -0.5108 
     45 CA        -50.5167  -23.7496   15.7066 C.3       8 UNK         0.0248 
     46 CB        -49.5279  -22.6313   15.3296 C.3       8 UNK        -0.2001 
     47 N         -51.5064  -23.9012   14.6436 N.am      8 UNK        -0.4140 
     48 C         -52.7345  -24.4124   14.7829 C.2       8 UNK         0.5028 
     49 O         -53.1805  -24.8288   15.8533 O.2       8 UNK        -0.5428 
     50 CA        -53.6504  -24.4522   13.5404 C.3       7 UNK         0.0264 
     51 CB        -54.6055  -23.2437   13.5301 C.3       7 UNK        -0.1988 
     52 N         -52.9810  -24.6041   12.2375 N.am      7 UNK        -0.4454 
     53 C         -52.1292  -23.7689   11.6239 C.2       7 UNK         0.5027 
     54 O         -51.7247  -22.7115   12.1113 O.2       7 UNK        -0.5083 
     55 CA        -51.6277  -24.1941   10.2308 C.3       6 UNK         0.0844 
     56 C56       -52.0242  -23.1238    9.1761 C.3       14 UNK        -0.0967 
     57 S57       -51.3455  -23.4486    7.5093 S.3       14 UNK        -0.2604 
     58 C58       -52.7472  -24.2765    6.6939 C.3       14 UNK         0.0134 
     59 N         -50.1897  -24.4731   10.1851 N.am      6 UNK        -0.4116 
     60 C         -49.4084  -25.1129   11.0650 C.2       5 UNK         0.5034 
     61 O         -49.7835  -25.5488   12.1552 O.2       5 UNK        -0.5045 
     62 CA        -47.9441  -25.3477   10.6425 C.3       5 UNK         0.0224 
     63 CB        -47.7267  -26.8398   10.3301 C.3       5 UNK        -0.1978 
     64 N         -47.4872  -24.5546    9.4920 N.am      5 UNK        -0.4737 
     65 C         -47.3675  -23.2185    9.4652 C.2       4 UNK         0.5027 
     66 O         -47.6320  -22.4949   10.4260 O.2       4 UNK        -0.5211 
     67 CA        -46.8944  -22.5984    8.1333 C.3       4 UNK         0.0297 
     68 CB        -46.5094  -21.1091    8.2659 C.3       4 UNK        -0.1993 
     69 N         -45.8172  -23.3619    7.4882 N.am      4 UNK        -0.4486 
     70 C         -44.6064  -23.6411    7.9963 C.2       3 UNK         0.4961 
     71 O         -44.2150  -23.2440    9.0952 O.2       3 UNK        -0.5105 
     72 CA        -43.6704  -24.5031    7.1204 C.3       3 UNK         0.0299 
     73 CB        -42.5949  -25.2321    7.9549 C.3       3 UNK        -0.1972 
     74 N         -44.3560  -25.4598    6.2361 N.am      3 UNK        -0.4305 
     75 C         -45.1907  -26.4424    6.6051 C.2       2 UNK         0.5006 
     76 O         -45.6061  -26.6044    7.7563 O.2       2 UNK        -0.5106 
     77 CA        -45.6285  -27.4137    5.5007 C.3       2 UNK         0.0296 
     78 CB        -44.4518  -28.2993    5.0429 C.3       2 UNK        -0.2002 
     79 N         -46.7012  -28.2424    6.0377 N.am      2 UNK        -0.4032 
     80 C         -47.5607  -29.0033    5.3502 C.2       1 UNK         0.5000 
     81 O         -47.5476  -29.1099    4.1223 O.2       1 UNK        -0.5238 
     82 H82       -47.1397  -31.8617    9.8611 H         1 UNK         0.0889 
     83 H83       -47.7054  -30.2015   10.0528 H         1 UNK         0.0889 
     84 H84       -46.0026  -30.5184    9.7160 H         1 UNK         0.0889 
     85 H85       -48.7801  -29.4472    8.2498 H         1 UNK         0.3028 
     86 H86       -48.7307  -30.7516    5.7101 H         1 UNK         0.0864 
     87 H87       -50.2815  -28.9496    4.9940 H         1 UNK         0.0720 
     88 H88       -49.9076  -28.0211    6.4180 H         1 UNK         0.0720 
     89 H89       -50.6205  -28.4842    8.7248 H         1 UNK         0.0814 
     90 H90       -51.8981  -29.5634    9.2033 H         1 UNK         0.0814 
     91 H91       -51.2534  -26.4941    7.1097 H         1 UNK         0.1469 
     92 H92       -55.1164  -24.8515    7.9188 H         1 UNK         0.1381 
     93 H93       -54.1420  -28.7935    9.2956 H         1 UNK         0.1206 
     94 H94       -56.6062  -27.9087    9.0892 H         1 UNK         0.0813 
     95 H95       -56.8261  -26.1950    8.8867 H         1 UNK         0.0813 
     96 H96       -54.5739  -28.3879   11.8893 H         1 UNK         0.0638 
     97 H97       -55.8525  -29.0603   10.9149 H         1 UNK         0.0638 
     98 H98       -57.4983  -28.5951   12.7541 H         1 UNK         0.0568 
     99 H99       -55.7548  -31.6241   14.6867 H         1 UNK         0.3450 
    100 H100      -55.5772  -29.9734   15.2284 H         1 UNK         0.3450 
    101 H101      -55.1185  -27.5985   14.1833 H         1 UNK         0.2987 
    102 H102      -56.4151  -25.6259   15.9375 H         1 UNK         0.0766 
    103 H103      -58.1960  -26.4938   17.4181 H         1 UNK         0.0798 
    104 H104      -56.7424  -26.2031   18.3566 H         1 UNK         0.0798 
    105 H105      -57.1863  -27.8483   17.9039 H         1 UNK         0.0798 
    106 H106      -54.3078  -26.1270   16.3725 H         1 UNK         0.3198 
    107 H107      -52.5131  -27.0478   17.1099 H         1 UNK         0.0843 
    108 H108      -52.5984  -29.9437   18.0866 H         1 UNK         0.0831 
    109 H109      -52.9290  -28.5359   19.0866 H         1 UNK         0.0831 
    110 H110      -51.3292  -28.7577   18.3983 H         1 UNK         0.0831 
    111 H111      -51.2173  -29.0628   16.0122 H         1 UNK         0.3133 
    112 H112      -50.8689  -29.7541   13.7626 H         1 UNK         0.0566 
    113 H113      -50.6695  -28.8834   11.4285 H         1 UNK         0.0814 
    114 H114      -51.8035  -27.5867   11.7941 H         1 UNK         0.0814 
    115 H115      -52.3382  -29.2632   11.8230 H         1 UNK         0.0814 
    116 H116      -49.9591  -26.9761   13.2946 H         1 UNK         0.3091 
    117 H117      -47.8793  -26.9091   16.1899 H         1 UNK         0.0702 
    118 H118      -46.4021  -27.6694   14.3659 H         1 UNK         0.0785 
    119 H119      -46.3509  -25.9174   14.4852 H         1 UNK         0.0785 
    120 H120      -47.2732  -26.6917   13.1989 H         1 UNK         0.0785 
    121 H121      -48.9478  -25.0656   14.1613 H         1 UNK         0.2998 
    122 H122      -51.0332  -23.4411   16.6183 H         1 UNK         0.0697 
    123 H123      -49.0383  -22.8171   14.3727 H         1 UNK         0.0825 
    124 H124      -48.7470  -22.5278   16.0843 H         1 UNK         0.0825 
    125 H125      -50.0351  -21.6689   15.2573 H         1 UNK         0.0825 
    126 H126      -51.2673  -23.5323   13.7274 H         1 UNK         0.3029 
    127 H127      -54.2706  -25.3422   13.6501 H         1 UNK         0.0897 
    128 H128      -54.0690  -22.3005   13.4230 H         1 UNK         0.0792 
    129 H129      -55.1739  -23.1892   14.4596 H         1 UNK         0.0792 
    130 H130      -55.3257  -23.3166   12.7150 H         1 UNK         0.0792 
    131 H131      -53.2080  -25.4663   11.7604 H         1 UNK         0.3086 
    132 H132      -52.1215  -25.1312    9.9724 H         1 UNK         0.0583 
    133 H133      -53.1104  -23.0320    9.1135 H         1 UNK         0.1020 
    134 H134      -51.6603  -22.1394    9.4787 H         1 UNK         0.1020 
    135 H135      -53.5853  -23.5808    6.6299 H         1 UNK         0.0694 
    136 H136      -52.4678  -24.5183    5.6676 H         1 UNK         0.0694 
    137 H137      -49.7423  -24.1629    9.3359 H         1 UNK         0.2989 
    138 H138      -47.3227  -25.0718   11.4964 H         1 UNK         0.1055 
    139 H139      -48.2309  -27.1340    9.4094 H         1 UNK         0.0806 
    140 H140      -48.1105  -27.4794   11.1261 H         1 UNK         0.0806 
    141 H141      -46.6665  -27.0685   10.2198 H         1 UNK         0.0806 
    142 H142      -47.1722  -25.0776    8.6845 H         1 UNK         0.3061 
    143 H143      -47.7514  -22.6526    7.4599 H         1 UNK         0.0734 
    144 H144      -45.6901  -20.9633    8.9705 H         1 UNK         0.0832 
    145 H145      -46.2063  -20.6897    7.3067 H         1 UNK         0.0832 
    146 H146      -47.3532  -20.5180    8.6240 H         1 UNK         0.0832 
    147 H147      -46.0317  -23.7390    6.5755 H         1 UNK         0.3156 
    148 H148      -43.1537  -23.8024    6.4630 H         1 UNK         0.0589 
    149 H149      -41.9255  -25.8131    7.3206 H         1 UNK         0.0808 
    150 H150      -41.9773  -24.5237    8.5085 H         1 UNK         0.0808 
    151 H151      -43.0421  -25.9114    8.6817 H         1 UNK         0.0808 
    152 H152      -44.1041  -25.3980    5.2586 H         1 UNK         0.3098 
    153 H153      -46.0123  -26.8346    4.6585 H         1 UNK         0.0720 
    154 H154      -44.0537  -28.8926    5.8673 H         1 UNK         0.0791 
    155 H155      -43.6322  -27.6998    4.6455 H         1 UNK         0.0791 
    156 H156      -44.7531  -28.9883    4.2537 H         1 UNK         0.0791 
    157 H157      -46.7893  -28.1766    7.0447 H         1 UNK         0.3028 
@<TRIPOS>BOND
     1    1    2 1    
     2    1   82 1    
     3    1   83 1    
     4    1   84 1    
     5    2    3 2    
     6    2    4 am   BACKBONE|DICT|INTERRES
     7    4    5 1    
     8    4   85 1    
     9    5    6 1    
    10    5   80 1    
    11    5   86 1    
    12    6    7 1    
    13    6   87 1    
    14    6   88 1    
    15    7    8 1    
    16    8    9 1    
    17    8   89 1    
    18    8   90 1    
    19    9   10 ar   
    20    9   14 ar   
    21   10   11 ar   
    22   10   91 1    
    23   11   12 ar   
    24   11   58 1    
    25   12   13 ar   
    26   12   92 1    
    27   13   14 ar   
    28   13   15 1    
    29   14   93 1    
    30   15   16 1    
    31   15   94 1    
    32   15   95 1    
    33   16   17 1    
    34   17   18 1    
    35   17   96 1    
    36   17   97 1    
    37   18   19 1    
    38   18   22 1    
    39   18   98 1    
    40   19   20 am   BACKBONE|DICT|INTERRES
    41   19   21 2    
    42   20   99 1    
    43   20  100 1    
    44   22   23 am   BACKBONE|DICT|INTERRES
    45   22  101 1    
    46   23   24 2    
    47   23   25 1    
    48   25   26 1    
    49   25   27 1    
    50   25  102 1    
    51   26  103 1    
    52   26  104 1    
    53   26  105 1    
    54   27   28 am   BACKBONE|DICT|INTERRES
    55   27  106 1    
    56   28   29 2    
    57   28   30 1    
    58   30   31 1    
    59   30   32 1    
    60   30  107 1    
    61   31  108 1    
    62   31  109 1    
    63   31  110 1    
    64   32   33 am   BACKBONE|DICT|INTERRES
    65   32  111 1    
    66   33   34 2    
    67   33   35 1    
    68   35   36 1    
    69   35   37 1    
    70   35  112 1    
    71   36  113 1    
    72   36  114 1    
    73   36  115 1    
    74   37   38 am   BACKBONE|DICT|INTERRES
    75   37  116 1    
    76   38   39 2    
    77   38   40 1    
    78   40   41 1    
    79   40   42 1    
    80   40  117 1    
    81   41  118 1    
    82   41  119 1    
    83   41  120 1    
    84   42   43 am   BACKBONE|DICT|INTERRES
    85   42  121 1    
    86   43   44 2    
    87   43   45 1    
    88   45   46 1    
    89   45   47 1    
    90   45  122 1    
    91   46  123 1    
    92   46  124 1    
    93   46  125 1    
    94   47   48 am   BACKBONE|DICT|INTERRES
    95   47  126 1    
    96   48   49 2    
    97   48   50 1    
    98   50   51 1    
    99   50   52 1    
   100   50  127 1    
   101   51  128 1    
   102   51  129 1    
   103   51  130 1    
   104   52   53 am   BACKBONE|DICT|INTERRES
   105   52  131 1    
   106   53   54 2    
   107   53   55 1    
   108   55   56 1    
   109   55   59 1    
   110   55  132 1    
   111   56   57 1    
   112   56  133 1    
   113   56  134 1    
   114   57   58 1    
   115   58  135 1    
   116   58  136 1    
   117   59   60 am   BACKBONE|DICT|INTERRES
   118   59  137 1    
   119   60   61 2    
   120   60   62 1    
   121   62   63 1    
   122   62   64 1    
   123   62  138 1    
   124   63  139 1    
   125   63  140 1    
   126   63  141 1    
   127   64   65 am   BACKBONE|DICT|INTERRES
   128   64  142 1    
   129   65   66 2    
   130   65   67 1    
   131   67   68 1    
   132   67   69 1    
   133   67  143 1    
   134   68  144 1    
   135   68  145 1    
   136   68  146 1    
   137   69   70 am   BACKBONE|DICT|INTERRES
   138   69  147 1    
   139   70   71 2    
   140   70   72 1    
   141   72   73 1    
   142   72   74 1    
   143   72  148 1    
   144   73  149 1    
   145   73  150 1    
   146   73  151 1    
   147   74   75 am   BACKBONE|DICT|INTERRES
   148   74  152 1    
   149   75   76 2    
   150   75   77 1    
   151   77   78 1    
   152   77   79 1    
   153   77  153 1    
   154   78  154 1    
   155   78  155 1    
   156   78  156 1    
   157   79   80 am   BACKBONE|DICT|INTERRES
   158   79  157 1    
   159   80   81 2    
@<TRIPOS>SUBSTRUCTURE
     1 UNK         1 GROUP             0       ****    0 ROOT    
