@<TRIPOS>MOLECULE
3R207
157   159    1
SMALL
USER_CHARGES


@<TRIPOS>ATOM
      1 CA        -45.9029  -30.8519    2.7131 C.3       0 UNK        -0.1975 
      2 C         -47.0023  -29.8579    3.0575 C.2       0 UNK         0.4852 
      3 O         -47.4891  -29.1552    2.1711 O.2       0 UNK        -0.5216 
      4 N         -47.3975  -29.7999    4.3367 N.am      1 UNK        -0.4461 
      5 CA        -48.4331  -28.9027    4.8647 C.3       1 UNK         0.0864 
      6 C6        -48.7965  -29.2534    6.3275 C.3       14 UNK        -0.0898 
      7 S7        -49.6842  -30.8389    6.4780 S.3       14 UNK        -0.2598 
      8 C8        -51.4192  -30.3382    6.2135 C.3       14 UNK         0.0286 
      9 C9        -51.9140  -29.3552    7.2664 C.ar      14 UNK        -0.0844 
     10 C10       -51.9999  -27.9914    6.9682 C.ar      14 UNK        -0.0881 
     11 C11       -52.4298  -27.0772    7.9338 C.ar      14 UNK        -0.0643 
     12 C12       -52.7993  -27.5374    9.1991 C.ar      14 UNK        -0.0930 
     13 C13       -52.7270  -28.8993    9.5061 C.ar      14 UNK        -0.0827 
     14 C14       -52.2845  -29.8053    8.5374 C.ar      14 UNK        -0.1249 
     15 C15       -53.1154  -29.3783   10.8930 C.3       14 UNK         0.0141 
     16 S16       -54.9102  -29.6213   11.0215 S.3       14 UNK        -0.2313 
     17 C17       -55.1051  -29.5846   12.8308 C.3       14 UNK        -0.0915 
     18 CA        -56.4778  -30.1433   13.2880 C.3       13 UNK         0.0968 
     19 C         -56.4546  -31.6912   13.4314 C.2       13 UNK         0.5732 
     20 N         -56.7414  -32.4192   12.3612 N.am      13 UNK        -0.7310 
     21 O         -56.1460  -32.2346   14.4910 O.2       13 UNK        -0.5035 
     22 N         -56.9250  -29.4617   14.5076 N.am      13 UNK        -0.4233 
     23 C         -58.1417  -29.5500   15.0516 C.2       13 UNK         0.4989 
     24 O         -59.0702  -30.1887   14.5543 O.2       13 UNK        -0.4996 
     25 CA        -58.3851  -28.7764   16.3609 C.3       12 UNK         0.0216 
     26 CB        -57.9121  -29.5931   17.5800 C.3       12 UNK        -0.1964 
     27 N         -57.8486  -27.4042   16.3883 N.am      12 UNK        -0.4276 
     28 C         -56.5722  -26.9926   16.3800 C.2       12 UNK         0.5020 
     29 O         -55.6016  -27.7499   16.2906 O.2       12 UNK        -0.5489 
     30 CA        -56.3548  -25.4768   16.4850 C.3       11 UNK         0.0294 
     31 CB        -56.8417  -24.9307   17.8425 C.3       11 UNK        -0.2019 
     32 N         -54.9362  -25.1696   16.3202 N.am      11 UNK        -0.4493 
     33 C         -54.4298  -24.0086   15.8955 C.2       11 UNK         0.4932 
     34 O         -55.1282  -23.0544   15.5506 O.2       11 UNK        -0.5029 
     35 CA        -52.8967  -23.8551   15.8500 C.3       10 UNK         0.0280 
     36 CB        -52.3627  -23.3332   17.1981 C.3       10 UNK        -0.1976 
     37 N         -52.1439  -25.0343   15.3990 N.am      10 UNK        -0.4242 
     38 C         -52.0045  -26.2300   15.9911 C.2       10 UNK         0.5072 
     39 O         -52.5639  -26.5545   17.0388 O.2       10 UNK        -0.5224 
     40 CA        -51.0683  -27.2321   15.2967 C.3       9 UNK         0.0343 
     41 CB        -51.7201  -27.8049   14.0299 C.3       9 UNK        -0.2003 
     42 N         -49.7718  -26.6392   14.9634 N.am      9 UNK        -0.4272 
     43 C         -48.8567  -26.2682   15.8717 C.2       9 UNK         0.4988 
     44 O         -48.9707  -26.4633   17.0826 O.2       9 UNK        -0.5108 
     45 CA        -47.6017  -25.5513   15.3473 C.3       8 UNK         0.0248 
     46 CB        -46.5653  -26.5702   14.8473 C.3       8 UNK        -0.2001 
     47 N         -47.9013  -24.5766   14.2944 N.am      8 UNK        -0.4140 
     48 C         -48.6103  -23.4534   14.4859 C.2       8 UNK         0.5028 
     49 O         -49.0240  -23.0838   15.5848 O.2       8 UNK        -0.5428 
     50 CA        -48.9255  -22.5958   13.2488 C.3       7 UNK         0.0264 
     51 CB        -47.7566  -21.6486   12.9348 C.3       7 UNK        -0.1988 
     52 N         -49.2474  -23.3842   12.0581 N.am      7 UNK        -0.4454 
     53 C         -50.3096  -24.1946   11.9298 C.2       7 UNK         0.5027 
     54 O         -51.1614  -24.3586   12.8043 O.2       7 UNK        -0.5083 
     55 CA        -50.4025  -24.9930   10.6131 C.3       6 UNK         0.0844 
     56 C56       -50.9334  -24.0893    9.4686 C.3       14 UNK        -0.0967 
     57 S57       -50.8450  -24.8285    7.8005 S.3       14 UNK        -0.2604 
     58 C58       -52.4829  -25.5951    7.6032 C.3       14 UNK         0.0134 
     59 N         -49.1253  -25.6419   10.3060 N.am      6 UNK        -0.4116 
     60 C         -48.5251  -26.5555   11.0837 C.2       5 UNK         0.5034 
     61 O         -49.0044  -26.9983   12.1280 O.2       5 UNK        -0.5045 
     62 CA        -47.1238  -27.0068   10.6520 C.3       5 UNK         0.0224 
     63 CB        -47.2151  -28.1250    9.6034 C.3       5 UNK        -0.1978 
     64 N         -46.3364  -25.8867   10.1291 N.am      5 UNK        -0.4737 
     65 C         -45.8370  -24.9060   10.8963 C.2       4 UNK         0.5027 
     66 O         -45.9544  -24.8763   12.1200 O.2       4 UNK        -0.5211 
     67 CA        -45.1238  -23.7413   10.1870 C.3       4 UNK         0.0297 
     68 CB        -43.6402  -24.0747    9.9664 C.3       4 UNK        -0.1993 
     69 N         -45.7390  -23.3798    8.9089 N.am      4 UNK        -0.4486 
     70 C         -46.9934  -22.9307    8.7641 C.2       3 UNK         0.4961 
     71 O         -47.7504  -22.7021    9.7075 O.2       3 UNK        -0.5105 
     72 CA        -47.5090  -22.7471    7.3247 C.3       3 UNK         0.0299 
     73 CB        -47.3132  -21.2919    6.8720 C.3       3 UNK        -0.1972 
     74 N         -46.9153  -23.6528    6.3298 N.am      3 UNK        -0.4305 
     75 C         -46.9018  -24.9920    6.4013 C.2       2 UNK         0.5006 
     76 O         -47.3061  -25.6327    7.3742 O.2       2 UNK        -0.5106 
     77 CA        -46.2663  -25.7338    5.2117 C.3       2 UNK         0.0296 
     78 CB        -44.7383  -25.7916    5.3760 C.3       2 UNK        -0.2002 
     79 N         -46.7798  -27.0998    5.0873 N.am      2 UNK        -0.4032 
     80 C         -48.0434  -27.4136    4.7654 C.2       1 UNK         0.5000 
     81 O         -48.8869  -26.5896    4.4053 O.2       1 UNK        -0.5238 
     82 H82       -45.0424  -30.3296    2.2958 H         1 UNK         0.0889 
     83 H83       -46.2614  -31.5653    1.9716 H         1 UNK         0.0889 
     84 H84       -45.5691  -31.4110    3.5871 H         1 UNK         0.0889 
     85 H85       -46.9817  -30.4278    5.0101 H         1 UNK         0.3028 
     86 H86       -49.3247  -29.0317    4.2473 H         1 UNK         0.0864 
     87 H87       -47.8889  -29.3274    6.9280 H         1 UNK         0.0720 
     88 H88       -49.3843  -28.4642    6.7963 H         1 UNK         0.0720 
     89 H89       -51.5233  -29.9150    5.2133 H         1 UNK         0.0814 
     90 H90       -52.0477  -31.2299    6.2292 H         1 UNK         0.0814 
     91 H91       -51.7074  -27.6335    5.9901 H         1 UNK         0.1469 
     92 H92       -53.1412  -26.8361    9.9477 H         1 UNK         0.1381 
     93 H93       -52.2208  -30.8590    8.7729 H         1 UNK         0.1206 
     94 H94       -52.6009  -30.3076   11.1423 H         1 UNK         0.0813 
     95 H95       -52.7948  -28.6395   11.6262 H         1 UNK         0.0813 
     96 H96       -55.0018  -28.5390   13.1271 H         1 UNK         0.0638 
     97 H97       -54.2783  -30.1137   13.3094 H         1 UNK         0.0638 
     98 H98       -57.2226  -29.8943   12.5291 H         1 UNK         0.0568 
     99 H99       -56.9628  -31.9799   11.4813 H         1 UNK         0.3450 
    100 H100      -56.7190  -33.4244   12.4301 H         1 UNK         0.3450 
    101 H101      -56.2264  -28.9334   15.0254 H         1 UNK         0.2987 
    102 H102      -59.4669  -28.6639   16.4515 H         1 UNK         0.0766 
    103 H103      -58.1583  -29.0893   18.5147 H         1 UNK         0.0798 
    104 H104      -56.8353  -29.7647   17.5654 H         1 UNK         0.0798 
    105 H105      -58.3935  -30.5717   17.6026 H         1 UNK         0.0798 
    106 H106      -58.5585  -26.6848   16.4207 H         1 UNK         0.3198 
    107 H107      -56.9183  -25.0052   15.6769 H         1 UNK         0.0843 
    108 H108      -56.3098  -25.3952   18.6738 H         1 UNK         0.0831 
    109 H109      -57.9060  -25.1146   17.9920 H         1 UNK         0.0831 
    110 H110      -56.6937  -23.8530   17.9141 H         1 UNK         0.0831 
    111 H111      -54.2962  -25.9234   16.5688 H         1 UNK         0.3133 
    112 H112      -52.6868  -23.0886   15.1022 H         1 UNK         0.0566 
    113 H113      -51.2903  -23.1438   17.1526 H         1 UNK         0.0814 
    114 H114      -52.8466  -22.3947   17.4712 H         1 UNK         0.0814 
    115 H115      -52.5441  -24.0386   18.0096 H         1 UNK         0.0814 
    116 H116      -51.6735  -24.9010   14.5048 H         1 UNK         0.3091 
    117 H117      -50.8933  -28.0593   15.9880 H         1 UNK         0.0702 
    118 H118      -52.6869  -28.2538   14.2608 H         1 UNK         0.0785 
    119 H119      -51.8854  -27.0347   13.2756 H         1 UNK         0.0785 
    120 H120      -51.0978  -28.5804   13.5829 H         1 UNK         0.0785 
    121 H121      -49.5675  -26.5043   13.9775 H         1 UNK         0.2998 
    122 H122      -47.1595  -25.0068   16.1843 H         1 UNK         0.0697 
    123 H123      -46.9307  -27.1290   13.9857 H         1 UNK         0.0825 
    124 H124      -46.3221  -27.2940   15.6263 H         1 UNK         0.0825 
    125 H125      -45.6347  -26.0807   14.5599 H         1 UNK         0.0825 
    126 H126      -47.5116  -24.7626   13.3753 H         1 UNK         0.3029 
    127 H127      -49.8020  -21.9892   13.4867 H         1 UNK         0.0897 
    128 H128      -47.9982  -20.9811   12.1074 H         1 UNK         0.0792 
    129 H129      -46.8536  -22.1984   12.6670 H         1 UNK         0.0792 
    130 H130      -47.5166  -21.0245   13.7967 H         1 UNK         0.0792 
    131 H131      -48.6216  -23.2761   11.2615 H         1 UNK         0.3086 
    132 H132      -51.1272  -25.7929   10.7715 H         1 UNK         0.0583 
    133 H133      -51.9607  -23.7852    9.6768 H         1 UNK         0.1020 
    134 H134      -50.3634  -23.1597    9.4207 H         1 UNK         0.1020 
    135 H135      -53.2271  -25.0848    8.2160 H         1 UNK         0.0694 
    136 H136      -52.8047  -25.4658    6.5687 H         1 UNK         0.0694 
    137 H137      -48.6662  -25.3532    9.4522 H         1 UNK         0.2989 
    138 H138      -46.6126  -27.4052   11.5312 H         1 UNK         0.1055 
    139 H139      -47.7274  -28.9981   10.0099 H         1 UNK         0.0806 
    140 H140      -46.2273  -28.4490    9.2759 H         1 UNK         0.0806 
    141 H141      -47.7743  -27.8038    8.7255 H         1 UNK         0.0806 
    142 H142      -46.2935  -25.7960    9.1190 H         1 UNK         0.3061 
    143 H143      -45.1850  -22.8698   10.8421 H         1 UNK         0.0734 
    144 H144      -43.1002  -23.2268    9.5446 H         1 UNK         0.0832 
    145 H145      -43.1546  -24.3283   10.9100 H         1 UNK         0.0832 
    146 H146      -43.5111  -24.9249    9.2953 H         1 UNK         0.0832 
    147 H147      -45.1926  -23.5379    8.0754 H         1 UNK         0.3156 
    148 H148      -48.5804  -22.9514    7.3419 H         1 UNK         0.0589 
    149 H149      -46.2569  -21.0320    6.7911 H         1 UNK         0.0808 
    150 H150      -47.7808  -21.1096    5.9042 H         1 UNK         0.0808 
    151 H151      -47.7658  -20.5981    7.5823 H         1 UNK         0.0808 
    152 H152      -46.5373  -23.2154    5.5013 H         1 UNK         0.3098 
    153 H153      -46.5065  -25.1947    4.2929 H         1 UNK         0.0720 
    154 H154      -44.2678  -26.2981    4.5330 H         1 UNK         0.0791 
    155 H155      -44.4496  -26.3177    6.2872 H         1 UNK         0.0791 
    156 H156      -44.3088  -24.7902    5.4280 H         1 UNK         0.0791 
    157 H157      -46.1646  -27.8432    5.3815 H         1 UNK         0.3028 
@<TRIPOS>BOND
     1    1    2 1    
     2    1   82 1    
     3    1   83 1    
     4    1   84 1    
     5    2    3 2    
     6    2    4 am   BACKBONE|DICT|INTERRES
     7    4    5 1    
     8    4   85 1    
     9    5    6 1    
    10    5   80 1    
    11    5   86 1    
    12    6    7 1    
    13    6   87 1    
    14    6   88 1    
    15    7    8 1    
    16    8    9 1    
    17    8   89 1    
    18    8   90 1    
    19    9   10 ar   
    20    9   14 ar   
    21   10   11 ar   
    22   10   91 1    
    23   11   12 ar   
    24   11   58 1    
    25   12   13 ar   
    26   12   92 1    
    27   13   14 ar   
    28   13   15 1    
    29   14   93 1    
    30   15   16 1    
    31   15   94 1    
    32   15   95 1    
    33   16   17 1    
    34   17   18 1    
    35   17   96 1    
    36   17   97 1    
    37   18   19 1    
    38   18   22 1    
    39   18   98 1    
    40   19   20 am   BACKBONE|DICT|INTERRES
    41   19   21 2    
    42   20   99 1    
    43   20  100 1    
    44   22   23 am   BACKBONE|DICT|INTERRES
    45   22  101 1    
    46   23   24 2    
    47   23   25 1    
    48   25   26 1    
    49   25   27 1    
    50   25  102 1    
    51   26  103 1    
    52   26  104 1    
    53   26  105 1    
    54   27   28 am   BACKBONE|DICT|INTERRES
    55   27  106 1    
    56   28   29 2    
    57   28   30 1    
    58   30   31 1    
    59   30   32 1    
    60   30  107 1    
    61   31  108 1    
    62   31  109 1    
    63   31  110 1    
    64   32   33 am   BACKBONE|DICT|INTERRES
    65   32  111 1    
    66   33   34 2    
    67   33   35 1    
    68   35   36 1    
    69   35   37 1    
    70   35  112 1    
    71   36  113 1    
    72   36  114 1    
    73   36  115 1    
    74   37   38 am   BACKBONE|DICT|INTERRES
    75   37  116 1    
    76   38   39 2    
    77   38   40 1    
    78   40   41 1    
    79   40   42 1    
    80   40  117 1    
    81   41  118 1    
    82   41  119 1    
    83   41  120 1    
    84   42   43 am   BACKBONE|DICT|INTERRES
    85   42  121 1    
    86   43   44 2    
    87   43   45 1    
    88   45   46 1    
    89   45   47 1    
    90   45  122 1    
    91   46  123 1    
    92   46  124 1    
    93   46  125 1    
    94   47   48 am   BACKBONE|DICT|INTERRES
    95   47  126 1    
    96   48   49 2    
    97   48   50 1    
    98   50   51 1    
    99   50   52 1    
   100   50  127 1    
   101   51  128 1    
   102   51  129 1    
   103   51  130 1    
   104   52   53 am   BACKBONE|DICT|INTERRES
   105   52  131 1    
   106   53   54 2    
   107   53   55 1    
   108   55   56 1    
   109   55   59 1    
   110   55  132 1    
   111   56   57 1    
   112   56  133 1    
   113   56  134 1    
   114   57   58 1    
   115   58  135 1    
   116   58  136 1    
   117   59   60 am   BACKBONE|DICT|INTERRES
   118   59  137 1    
   119   60   61 2    
   120   60   62 1    
   121   62   63 1    
   122   62   64 1    
   123   62  138 1    
   124   63  139 1    
   125   63  140 1    
   126   63  141 1    
   127   64   65 am   BACKBONE|DICT|INTERRES
   128   64  142 1    
   129   65   66 2    
   130   65   67 1    
   131   67   68 1    
   132   67   69 1    
   133   67  143 1    
   134   68  144 1    
   135   68  145 1    
   136   68  146 1    
   137   69   70 am   BACKBONE|DICT|INTERRES
   138   69  147 1    
   139   70   71 2    
   140   70   72 1    
   141   72   73 1    
   142   72   74 1    
   143   72  148 1    
   144   73  149 1    
   145   73  150 1    
   146   73  151 1    
   147   74   75 am   BACKBONE|DICT|INTERRES
   148   74  152 1    
   149   75   76 2    
   150   75   77 1    
   151   77   78 1    
   152   77   79 1    
   153   77  153 1    
   154   78  154 1    
   155   78  155 1    
   156   78  156 1    
   157   79   80 am   BACKBONE|DICT|INTERRES
   158   79  157 1    
   159   80   81 2    
@<TRIPOS>SUBSTRUCTURE
     1 UNK         1 GROUP             0       ****    0 ROOT    
