@<TRIPOS>MOLECULE
3R207
157   159    1
SMALL
USER_CHARGES


@<TRIPOS>ATOM
      1 CA        -49.4707  -31.0808   11.8055 C.3       0 UNK        -0.1975 
      2 C         -48.7671  -30.1437   10.8356 C.2       0 UNK         0.4852 
      3 O         -48.1298  -29.1874   11.2722 O.2       0 UNK        -0.5216 
      4 N         -48.8588  -30.4230    9.5276 N.am      1 UNK        -0.4461 
      5 CA        -48.3924  -29.6236    8.3796 C.3       1 UNK         0.0864 
      6 C6        -49.1590  -28.2778    8.2376 C.3       14 UNK        -0.0898 
      7 S7        -49.5441  -27.8762    6.4980 S.3       14 UNK        -0.2598 
      8 C8        -50.9931  -28.9295    6.1559 C.3       14 UNK         0.0286 
      9 C9        -52.2687  -28.4149    6.8084 C.ar      14 UNK        -0.0844 
     10 C10       -53.0849  -27.4957    6.1410 C.ar      14 UNK        -0.0881 
     11 C11       -54.2787  -27.0509    6.7204 C.ar      14 UNK        -0.0643 
     12 C12       -54.6505  -27.5307    7.9809 C.ar      14 UNK        -0.0930 
     13 C13       -53.8377  -28.4441    8.6602 C.ar      14 UNK        -0.0827 
     14 C14       -52.6561  -28.8901    8.0639 C.ar      14 UNK        -0.1249 
     15 C15       -54.2384  -28.9729   10.0292 C.3       14 UNK         0.0141 
     16 S16       -53.2893  -28.1869   11.3703 S.3       14 UNK        -0.2313 
     17 C17       -54.0291  -26.5183   11.4383 C.3       14 UNK        -0.0915 
     18 CA        -55.0587  -26.3198   12.5812 C.3       13 UNK         0.0968 
     19 C         -56.3652  -27.1258   12.3102 C.2       13 UNK         0.5732 
     20 N         -56.6322  -28.2240   13.0088 N.am      13 UNK        -0.7310 
     21 O         -57.1503  -26.7440   11.4456 O.2       13 UNK        -0.5035 
     22 N         -54.4384  -26.5359   13.8950 N.am      13 UNK        -0.4233 
     23 C         -55.0287  -26.3510   15.0818 C.2       13 UNK         0.4989 
     24 O         -56.1204  -25.7953   15.2188 O.2       13 UNK        -0.4996 
     25 CA        -54.2861  -26.8972   16.3229 C.3       12 UNK         0.0216 
     26 CB        -55.2489  -27.2200   17.4845 C.3       12 UNK        -0.1964 
     27 N         -53.4195  -28.0579   16.0586 N.am      12 UNK        -0.4276 
     28 C         -53.7446  -29.2079   15.4419 C.2       12 UNK         0.5020 
     29 O         -54.8706  -29.4536   15.0052 O.2       12 UNK        -0.5489 
     30 CA        -52.6224  -30.2477   15.2665 C.3       11 UNK         0.0294 
     31 CB        -52.7568  -31.0643   13.9676 C.3       11 UNK        -0.2019 
     32 N         -51.3012  -29.6159   15.3162 N.am      11 UNK        -0.4493 
     33 C         -50.2707  -30.0645   16.0443 C.2       11 UNK         0.4932 
     34 O         -50.2773  -31.1317   16.6586 O.2       11 UNK        -0.5029 
     35 CA        -49.0246  -29.1623   16.1350 C.3       10 UNK         0.0280 
     36 CB        -47.9972  -29.5628   15.0635 C.3       10 UNK        -0.1976 
     37 N         -49.2885  -27.7221   16.0288 N.am      10 UNK        -0.4242 
     38 C         -50.1427  -27.0036   16.7751 C.2       10 UNK         0.5072 
     39 O         -50.8644  -27.4814   17.6503 O.2       10 UNK        -0.5224 
     40 CA        -50.2563  -25.5013   16.4587 C.3       9 UNK         0.0343 
     41 CB        -49.3775  -24.6828   17.4175 C.3       9 UNK        -0.2003 
     42 N         -49.9145  -25.1578   15.0753 N.am      9 UNK        -0.4272 
     43 C         -50.5720  -25.5895   13.9908 C.2       9 UNK         0.4988 
     44 O         -51.5458  -26.3454   14.0332 O.2       9 UNK        -0.5108 
     45 CA        -50.0023  -25.1452   12.6341 C.3       8 UNK         0.0248 
     46 CB        -49.7447  -26.3751   11.7548 C.3       8 UNK        -0.2001 
     47 N         -50.8670  -24.2029   11.9205 N.am      8 UNK        -0.4140 
     48 C         -51.2687  -23.0068   12.3826 C.2       8 UNK         0.5028 
     49 O         -50.9252  -22.5537   13.4756 O.2       8 UNK        -0.5428 
     50 CA        -52.1912  -22.1526   11.4893 C.3       7 UNK         0.0264 
     51 CB        -51.6975  -20.6970   11.3977 C.3       7 UNK        -0.1988 
     52 N         -52.3129  -22.7027   10.1371 N.am      7 UNK        -0.4454 
     53 C         -53.3690  -23.3989    9.6888 C.2       7 UNK         0.5027 
     54 O         -54.4061  -23.5326   10.3389 O.2       7 UNK        -0.5083 
     55 CA        -53.2736  -24.0793    8.3024 C.3       6 UNK         0.0844 
     56 C56       -54.4867  -23.7187    7.4070 C.3       14 UNK        -0.0967 
     57 S57       -54.3978  -24.4458    5.7324 S.3       14 UNK        -0.2604 
     58 C58       -55.1783  -26.0749    5.9717 C.3       14 UNK         0.0134 
     59 N         -51.9928  -23.8643    7.6240 N.am      6 UNK        -0.4116 
     60 C         -50.8435  -24.4623    7.9561 C.2       5 UNK         0.5034 
     61 O         -50.7348  -25.2231    8.9166 O.2       5 UNK        -0.5045 
     62 CA        -49.5950  -24.1148    7.1186 C.3       5 UNK         0.0224 
     63 CB        -49.8547  -23.1017    5.9795 C.3       5 UNK        -0.1978 
     64 N         -48.4818  -23.6532    7.9562 N.am      5 UNK        -0.4737 
     65 C         -48.5099  -22.6663    8.8638 C.2       4 UNK         0.5027 
     66 O         -49.5158  -21.9963    9.1036 O.2       4 UNK        -0.5211 
     67 CA        -47.1950  -22.3365    9.6010 C.3       4 UNK         0.0297 
     68 CB        -47.4297  -22.0765   11.1047 C.3       4 UNK        -0.1993 
     69 N         -46.0996  -23.2987    9.3847 N.am      4 UNK        -0.4486 
     70 C         -46.0244  -24.5650    9.8186 C.2       3 UNK         0.4961 
     71 O         -46.9002  -25.1306   10.4732 O.2       3 UNK        -0.5105 
     72 CA        -44.7415  -25.3271    9.4681 C.3       3 UNK         0.0299 
     73 CB        -43.5827  -24.8918   10.3878 C.3       3 UNK        -0.1972 
     74 N         -45.0006  -26.7570    9.6170 N.am      3 UNK        -0.4305 
     75 C         -44.2337  -27.7520    9.1560 C.2       2 UNK         0.5006 
     76 O         -43.1950  -27.5788    8.5168 O.2       2 UNK        -0.5106 
     77 CA        -44.6941  -29.1863    9.4633 C.3       2 UNK         0.0296 
     78 CB        -44.2115  -29.6211   10.8569 C.3       2 UNK        -0.2002 
     79 N         -46.1463  -29.3453    9.3856 N.am      2 UNK        -0.4032 
     80 C         -46.8586  -29.4382    8.2569 C.2       1 UNK         0.5000 
     81 O         -46.3452  -29.4159    7.1365 O.2       1 UNK        -0.5238 
     82 H82       -50.1546  -30.5135   12.4361 H         1 UNK         0.0889 
     83 H83       -48.7420  -31.5721   12.4495 H         1 UNK         0.0889 
     84 H84       -50.0454  -31.8494   11.2894 H         1 UNK         0.0889 
     85 H85       -49.3484  -31.2669    9.2634 H         1 UNK         0.3028 
     86 H86       -48.6581  -30.2527    7.5291 H         1 UNK         0.0864 
     87 H87       -50.0941  -28.2945    8.7966 H         1 UNK         0.0720 
     88 H88       -48.5963  -27.4496    8.6738 H         1 UNK         0.0720 
     89 H89       -51.1344  -28.9801    5.0753 H         1 UNK         0.0814 
     90 H90       -50.7916  -29.9524    6.4759 H         1 UNK         0.0814 
     91 H91       -52.7955  -27.1283    5.1659 H         1 UNK         0.1469 
     92 H92       -55.5723  -27.1930    8.4348 H         1 UNK         0.1381 
     93 H93       -52.0358  -29.6071    8.5838 H         1 UNK         0.1206 
     94 H94       -55.3070  -28.8391   10.1999 H         1 UNK         0.0813 
     95 H95       -54.0616  -30.0487   10.0646 H         1 UNK         0.0813 
     96 H96       -53.2092  -25.8120   11.5688 H         1 UNK         0.0638 
     97 H97       -54.4756  -26.2709   10.4757 H         1 UNK         0.0638 
     98 H98       -55.3547  -25.2695   12.5617 H         1 UNK         0.0568 
     99 H99       -55.9804  -28.5665   13.7104 H         1 UNK         0.3450 
    100 H100      -57.4820  -28.7312   12.8251 H         1 UNK         0.3450 
    101 H101      -53.4978  -26.9140   13.8767 H         1 UNK         0.2987 
    102 H102      -53.6261  -26.0940   16.6522 H         1 UNK         0.0766 
    103 H103      -54.7068  -27.5708   18.3627 H         1 UNK         0.0798 
    104 H104      -55.8137  -26.3374   17.7876 H         1 UNK         0.0798 
    105 H105      -55.9695  -27.9896   17.2053 H         1 UNK         0.0798 
    106 H106      -52.4798  -27.9797   16.4329 H         1 UNK         0.3198 
    107 H107      -52.7369  -30.9352   16.1072 H         1 UNK         0.0843 
    108 H108      -53.7254  -31.5624   13.9110 H         1 UNK         0.0831 
    109 H109      -51.9931  -31.8397   13.9091 H         1 UNK         0.0831 
    110 H110      -52.6612  -30.4341   13.0849 H         1 UNK         0.0831 
    111 H111      -51.2052  -28.7350   14.8256 H         1 UNK         0.3133 
    112 H112      -48.5774  -29.3325   17.1163 H         1 UNK         0.0566 
    113 H113      -48.3565  -29.3407   14.0581 H         1 UNK         0.0814 
    114 H114      -47.7821  -30.6316   15.1043 H         1 UNK         0.0814 
    115 H115      -47.0510  -29.0398   15.2035 H         1 UNK         0.0814 
    116 H116      -48.7548  -27.2234   15.3322 H         1 UNK         0.3091 
    117 H117      -51.2965  -25.2118   16.6196 H         1 UNK         0.0702 
    118 H118      -49.5168  -23.6120   17.2671 H         1 UNK         0.0785 
    119 H119      -48.3180  -24.9066   17.2867 H         1 UNK         0.0785 
    120 H120      -49.6300  -24.8969   18.4572 H         1 UNK         0.0785 
    121 H121      -49.1438  -24.5175   14.9470 H         1 UNK         0.2998 
    122 H122      -49.0440  -24.6503   12.7998 H         1 UNK         0.0697 
    123 H123      -50.6680  -26.8822   11.4767 H         1 UNK         0.0825 
    124 H124      -49.1203  -27.0946   12.2825 H         1 UNK         0.0825 
    125 H125      -49.2249  -26.1124   10.8357 H         1 UNK         0.0825 
    126 H126      -51.1579  -24.4904   10.9942 H         1 UNK         0.3029 
    127 H127      -53.1666  -22.1375   11.9800 H         1 UNK         0.0897 
    128 H128      -52.3422  -20.0989   10.7536 H         1 UNK         0.0792 
    129 H129      -51.6943  -20.2223   12.3797 H         1 UNK         0.0792 
    130 H130      -50.6822  -20.6362   11.0064 H         1 UNK         0.0792 
    131 H131      -51.4844  -22.6196    9.5549 H         1 UNK         0.3086 
    132 H132      -53.3372  -25.1474    8.5122 H         1 UNK         0.0583 
    133 H133      -55.4190  -24.0343    7.8797 H         1 UNK         0.1020 
    134 H134      -54.5620  -22.6356    7.2932 H         1 UNK         0.1020 
    135 H135      -56.1347  -25.9487    6.4815 H         1 UNK         0.0694 
    136 H136      -55.4103  -26.4957    4.9923 H         1 UNK         0.0694 
    137 H137      -52.0065  -23.2393    6.8320 H         1 UNK         0.2989 
    138 H138      -49.2698  -25.0476    6.6600 H         1 UNK         0.1055 
    139 H139      -48.9492  -22.9328    5.3965 H         1 UNK         0.0806 
    140 H140      -50.1844  -22.1327    6.3568 H         1 UNK         0.0806 
    141 H141      -50.6107  -23.4693    5.2840 H         1 UNK         0.0806 
    142 H142      -47.6204  -24.1718    7.8679 H         1 UNK         0.3061 
    143 H143      -46.8488  -21.3985    9.1646 H         1 UNK         0.0734 
    144 H144      -48.1176  -21.2438   11.2560 H         1 UNK         0.0832 
    145 H145      -47.8644  -22.9431   11.6018 H         1 UNK         0.0832 
    146 H146      -46.5009  -21.8247   11.6160 H         1 UNK         0.0832 
    147 H147      -45.3218  -22.9420    8.8451 H         1 UNK         0.3156 
    148 H148      -44.4869  -25.1209    8.4265 H         1 UNK         0.0589 
    149 H149      -43.7999  -25.1086   11.4345 H         1 UNK         0.0808 
    150 H150      -42.6521  -25.3967   10.1290 H         1 UNK         0.0808 
    151 H151      -43.3958  -23.8202   10.3089 H         1 UNK         0.0808 
    152 H152      -45.8613  -26.9648   10.1109 H         1 UNK         0.3098 
    153 H153      -44.2355  -29.8478    8.7250 H         1 UNK         0.0720 
    154 H154      -44.4603  -30.6640   11.0541 H         1 UNK         0.0791 
    155 H155      -43.1283  -29.5248   10.9429 H         1 UNK         0.0791 
    156 H156      -44.6578  -29.0155   11.6470 H         1 UNK         0.0791 
    157 H157      -46.6749  -29.3280   10.2571 H         1 UNK         0.3028 
@<TRIPOS>BOND
     1    1    2 1    
     2    1   82 1    
     3    1   83 1    
     4    1   84 1    
     5    2    3 2    
     6    2    4 am   BACKBONE|DICT|INTERRES
     7    4    5 1    
     8    4   85 1    
     9    5    6 1    
    10    5   80 1    
    11    5   86 1    
    12    6    7 1    
    13    6   87 1    
    14    6   88 1    
    15    7    8 1    
    16    8    9 1    
    17    8   89 1    
    18    8   90 1    
    19    9   10 ar   
    20    9   14 ar   
    21   10   11 ar   
    22   10   91 1    
    23   11   12 ar   
    24   11   58 1    
    25   12   13 ar   
    26   12   92 1    
    27   13   14 ar   
    28   13   15 1    
    29   14   93 1    
    30   15   16 1    
    31   15   94 1    
    32   15   95 1    
    33   16   17 1    
    34   17   18 1    
    35   17   96 1    
    36   17   97 1    
    37   18   19 1    
    38   18   22 1    
    39   18   98 1    
    40   19   20 am   BACKBONE|DICT|INTERRES
    41   19   21 2    
    42   20   99 1    
    43   20  100 1    
    44   22   23 am   BACKBONE|DICT|INTERRES
    45   22  101 1    
    46   23   24 2    
    47   23   25 1    
    48   25   26 1    
    49   25   27 1    
    50   25  102 1    
    51   26  103 1    
    52   26  104 1    
    53   26  105 1    
    54   27   28 am   BACKBONE|DICT|INTERRES
    55   27  106 1    
    56   28   29 2    
    57   28   30 1    
    58   30   31 1    
    59   30   32 1    
    60   30  107 1    
    61   31  108 1    
    62   31  109 1    
    63   31  110 1    
    64   32   33 am   BACKBONE|DICT|INTERRES
    65   32  111 1    
    66   33   34 2    
    67   33   35 1    
    68   35   36 1    
    69   35   37 1    
    70   35  112 1    
    71   36  113 1    
    72   36  114 1    
    73   36  115 1    
    74   37   38 am   BACKBONE|DICT|INTERRES
    75   37  116 1    
    76   38   39 2    
    77   38   40 1    
    78   40   41 1    
    79   40   42 1    
    80   40  117 1    
    81   41  118 1    
    82   41  119 1    
    83   41  120 1    
    84   42   43 am   BACKBONE|DICT|INTERRES
    85   42  121 1    
    86   43   44 2    
    87   43   45 1    
    88   45   46 1    
    89   45   47 1    
    90   45  122 1    
    91   46  123 1    
    92   46  124 1    
    93   46  125 1    
    94   47   48 am   BACKBONE|DICT|INTERRES
    95   47  126 1    
    96   48   49 2    
    97   48   50 1    
    98   50   51 1    
    99   50   52 1    
   100   50  127 1    
   101   51  128 1    
   102   51  129 1    
   103   51  130 1    
   104   52   53 am   BACKBONE|DICT|INTERRES
   105   52  131 1    
   106   53   54 2    
   107   53   55 1    
   108   55   56 1    
   109   55   59 1    
   110   55  132 1    
   111   56   57 1    
   112   56  133 1    
   113   56  134 1    
   114   57   58 1    
   115   58  135 1    
   116   58  136 1    
   117   59   60 am   BACKBONE|DICT|INTERRES
   118   59  137 1    
   119   60   61 2    
   120   60   62 1    
   121   62   63 1    
   122   62   64 1    
   123   62  138 1    
   124   63  139 1    
   125   63  140 1    
   126   63  141 1    
   127   64   65 am   BACKBONE|DICT|INTERRES
   128   64  142 1    
   129   65   66 2    
   130   65   67 1    
   131   67   68 1    
   132   67   69 1    
   133   67  143 1    
   134   68  144 1    
   135   68  145 1    
   136   68  146 1    
   137   69   70 am   BACKBONE|DICT|INTERRES
   138   69  147 1    
   139   70   71 2    
   140   70   72 1    
   141   72   73 1    
   142   72   74 1    
   143   72  148 1    
   144   73  149 1    
   145   73  150 1    
   146   73  151 1    
   147   74   75 am   BACKBONE|DICT|INTERRES
   148   74  152 1    
   149   75   76 2    
   150   75   77 1    
   151   77   78 1    
   152   77   79 1    
   153   77  153 1    
   154   78  154 1    
   155   78  155 1    
   156   78  156 1    
   157   79   80 am   BACKBONE|DICT|INTERRES
   158   79  157 1    
   159   80   81 2    
@<TRIPOS>SUBSTRUCTURE
     1 UNK         1 GROUP             0       ****    0 ROOT    
