@<TRIPOS>MOLECULE
3R207
157   159    1
SMALL
USER_CHARGES


@<TRIPOS>ATOM
      1 CA        -47.2764  -30.4123    1.7772 C.3       0 UNK        -0.1975 
      2 C         -47.6216  -29.6455    3.0450 C.2       0 UNK         0.4852 
      3 O         -46.7231  -29.3260    3.8253 O.2       0 UNK        -0.5216 
      4 N         -48.9128  -29.3415    3.2445 N.am      1 UNK        -0.4461 
      5 CA        -49.5174  -28.6318    4.3845 C.3       1 UNK         0.0864 
      6 C6        -49.2956  -29.3255    5.7555 C.3       14 UNK        -0.0898 
      7 S7        -50.0789  -30.9709    5.8720 S.3       14 UNK        -0.2598 
      8 C8        -51.8332  -30.5736    6.1849 C.3       14 UNK         0.0286 
      9 C9        -52.0332  -29.7249    7.4327 C.ar      14 UNK        -0.0844 
     10 C10       -52.1966  -28.3416    7.3154 C.ar      14 UNK        -0.0881 
     11 C11       -52.3476  -27.5450    8.4522 C.ar      14 UNK        -0.0643 
     12 C12       -52.3676  -28.1436    9.7132 C.ar      14 UNK        -0.0930 
     13 C13       -52.2181  -29.5277    9.8454 C.ar      14 UNK        -0.0827 
     14 C14       -52.0497  -30.3144    8.7010 C.ar      14 UNK        -0.1249 
     15 C15       -52.2045  -30.1654   11.2276 C.3       14 UNK         0.0141 
     16 S16       -53.8061  -30.9121   11.6786 S.3       14 UNK        -0.2313 
     17 C17       -54.9612  -29.4982   11.5998 C.3       14 UNK        -0.0915 
     18 CA        -54.7025  -28.3969   12.6704 C.3       13 UNK         0.0968 
     19 C         -55.6177  -27.1473   12.5058 C.2       13 UNK         0.5732 
     20 N         -55.7205  -26.2961   13.5176 N.am      13 UNK        -0.7310 
     21 O         -56.2195  -26.9286   11.4569 O.2       13 UNK        -0.5035 
     22 N         -54.6492  -28.9162   14.0464 N.am      13 UNK        -0.4233 
     23 C         -55.6636  -29.4546   14.7345 C.2       13 UNK         0.4989 
     24 O         -56.8002  -29.6171   14.2890 O.2       13 UNK        -0.4996 
     25 CA        -55.3581  -29.8766   16.1767 C.3       12 UNK         0.0216 
     26 CB        -53.9588  -30.5045   16.3410 C.3       12 UNK        -0.1964 
     27 N         -55.4778  -28.7148   17.0563 N.am      12 UNK        -0.4276 
     28 C         -56.2272  -28.6651   18.1665 C.2       12 UNK         0.5020 
     29 O         -56.9223  -29.6031   18.5611 O.2       12 UNK        -0.5489 
     30 CA        -56.1905  -27.3752   19.0119 C.3       11 UNK         0.0294 
     31 CB        -55.4136  -27.6152   20.3177 C.3       11 UNK        -0.2019 
     32 N         -55.6022  -26.2259   18.3216 N.am      11 UNK        -0.4493 
     33 C         -56.2149  -25.5011   17.3765 C.2       11 UNK         0.4932 
     34 O         -57.3781  -25.6870   17.0197 O.2       11 UNK        -0.5029 
     35 CA        -55.3865  -24.3920   16.6981 C.3       10 UNK         0.0280 
     36 CB        -55.6870  -23.0307   17.3454 C.3       10 UNK        -0.1976 
     37 N         -53.9330  -24.6096   16.6951 N.am      10 UNK        -0.4242 
     38 C         -53.2901  -25.6742   16.1984 C.2       10 UNK         0.5072 
     39 O         -53.8710  -26.6523   15.7241 O.2       10 UNK        -0.5224 
     40 CA        -51.7511  -25.6355   16.2435 C.3       9 UNK         0.0343 
     41 CB        -51.1230  -26.9838   15.8437 C.3       9 UNK        -0.2003 
     42 N         -51.2020  -24.5820   15.3854 N.am      9 UNK        -0.4272 
     43 C         -51.2041  -23.2693   15.6687 C.2       9 UNK         0.4988 
     44 O         -51.7049  -22.8055   16.6962 O.2       9 UNK        -0.5108 
     45 CA        -50.5595  -22.3160   14.6370 C.3       8 UNK         0.0248 
     46 CB        -50.1017  -20.9810   15.2629 C.3       8 UNK        -0.2001 
     47 N         -49.4721  -22.9328   13.8661 N.am      8 UNK        -0.4140 
     48 C         -48.3404  -23.4753   14.3429 C.2       8 UNK         0.5028 
     49 O         -47.9983  -23.4153   15.5253 O.2       8 UNK        -0.5428 
     50 CA        -47.4480  -24.2302   13.3337 C.3       7 UNK         0.0264 
     51 CB        -46.7148  -25.4187   13.9905 C.3       7 UNK        -0.1988 
     52 N         -48.1278  -24.6875   12.1119 N.am      7 UNK        -0.4454 
     53 C         -49.2010  -25.4914   12.0152 C.2       7 UNK         0.5027 
     54 O         -49.8909  -25.8433   12.9730 O.2       7 UNK        -0.5083 
     55 CA        -49.5654  -25.9759   10.5974 C.3       6 UNK         0.0844 
     56 C56       -50.3793  -24.8794    9.8625 C.3       14 UNK        -0.0967 
     57 S57       -50.8206  -25.2760    8.1381 S.3       14 UNK        -0.2604 
     58 C58       -52.4647  -26.0374    8.3072 C.3       14 UNK         0.0134 
     59 N         -48.3757  -26.4339    9.8681 N.am      6 UNK        -0.4116 
     60 C         -47.6156  -27.4788   10.2395 C.2       5 UNK         0.5034 
     61 O         -47.8933  -28.2342   11.1714 O.2       5 UNK        -0.5045 
     62 CA        -46.3058  -27.7120    9.4710 C.3       5 UNK         0.0224 
     63 CB        -46.5334  -28.6385    8.2673 C.3       5 UNK        -0.1978 
     64 N         -45.7182  -26.4496    9.0207 N.am      5 UNK        -0.4737 
     65 C         -44.9114  -25.6837    9.7688 C.2       4 UNK         0.5027 
     66 O         -44.4937  -26.0141   10.8782 O.2       4 UNK        -0.5211 
     67 CA        -44.5023  -24.3133    9.1956 C.3       4 UNK         0.0297 
     68 CB        -43.1459  -24.4164    8.4800 C.3       4 UNK        -0.1993 
     69 N         -45.4899  -23.7424    8.2761 N.am      4 UNK        -0.4486 
     70 C         -46.7207  -23.3431    8.6253 C.2       3 UNK         0.4961 
     71 O         -47.1440  -23.3603    9.7816 O.2       3 UNK        -0.5105 
     72 CA        -47.6575  -22.9022    7.4844 C.3       3 UNK         0.0299 
     73 CB        -47.5338  -21.3892    7.2474 C.3       3 UNK        -0.1972 
     74 N         -47.4594  -23.6164    6.2139 N.am      3 UNK        -0.4305 
     75 C         -47.5022  -24.9479    6.0587 C.2       2 UNK         0.5006 
     76 O         -47.6333  -25.7380    6.9949 O.2       2 UNK        -0.5106 
     77 CA        -47.2850  -25.4830    4.6332 C.3       2 UNK         0.0296 
     78 CB        -45.7827  -25.5314    4.3086 C.3       2 UNK        -0.2002 
     79 N         -47.8419  -26.8266    4.4648 N.am      2 UNK        -0.4032 
     80 C         -49.1446  -27.1341    4.4469 C.2       1 UNK         0.5000 
     81 O         -50.0439  -26.2913    4.4565 O.2       1 UNK        -0.5238 
     82 H82       -46.7982  -31.3579    2.0311 H         1 UNK         0.0889 
     83 H83       -46.5845  -29.8337    1.1659 H         1 UNK         0.0889 
     84 H84       -48.1597  -30.6299    1.1771 H         1 UNK         0.0889 
     85 H85       -49.5780  -29.6234    2.5377 H         1 UNK         0.3028 
     86 H86       -50.5902  -28.6492    4.1878 H         1 UNK         0.0864 
     87 H87       -49.6424  -28.7017    6.5798 H         1 UNK         0.0720 
     88 H88       -48.2310  -29.4670    5.9378 H         1 UNK         0.0720 
     89 H89       -52.3894  -31.5063    6.2889 H         1 UNK         0.0814 
     90 H90       -52.2518  -30.0729    5.3108 H         1 UNK         0.0814 
     91 H91       -52.1732  -27.8756    6.3395 H         1 UNK         0.1469 
     92 H92       -52.4824  -27.5253   10.5913 H         1 UNK         0.1381 
     93 H93       -51.9220  -31.3840    8.7979 H         1 UNK         0.1206 
     94 H94       -51.4400  -30.9432   11.2564 H         1 UNK         0.0813 
     95 H95       -51.9117  -29.4379   11.9856 H         1 UNK         0.0813 
     96 H96       -54.9122  -29.0785   10.5940 H         1 UNK         0.0638 
     97 H97       -55.9736  -29.8908   11.7035 H         1 UNK         0.0638 
     98 H98       -53.7048  -28.0024   12.4881 H         1 UNK         0.0568 
     99 H99       -55.1779  -26.4494   14.3612 H         1 UNK         0.3450 
    100 H100      -56.3089  -25.4847   13.4240 H         1 UNK         0.3450 
    101 H101      -53.7818  -28.7519   14.5355 H         1 UNK         0.2987 
    102 H102      -56.0965  -30.6374   16.4388 H         1 UNK         0.0766 
    103 H103      -53.8005  -31.3066   15.6184 H         1 UNK         0.0798 
    104 H104      -53.8437  -30.9392   17.3340 H         1 UNK         0.0798 
    105 H105      -53.1582  -29.7759   16.2095 H         1 UNK         0.0798 
    106 H106      -54.9737  -27.8825   16.7615 H         1 UNK         0.3198 
    107 H107      -57.2231  -27.1300   19.2706 H         1 UNK         0.0843 
    108 H108      -54.3696  -27.8669   20.1268 H         1 UNK         0.0831 
    109 H109      -55.8478  -28.4399   20.8848 H         1 UNK         0.0831 
    110 H110      -55.4368  -26.7361   20.9622 H         1 UNK         0.0831 
    111 H111      -54.6480  -25.9923   18.5550 H         1 UNK         0.3133 
    112 H112      -55.7049  -24.3459   15.6555 H         1 UNK         0.0566 
    113 H113      -55.1938  -22.2187   16.8105 H         1 UNK         0.0814 
    114 H114      -56.7574  -22.8196   17.3352 H         1 UNK         0.0814 
    115 H115      -55.3575  -22.9972   18.3847 H         1 UNK         0.0814 
    116 H116      -53.3526  -23.8374   17.0113 H         1 UNK         0.3091 
    117 H117      -51.4601  -25.4294   17.2756 H         1 UNK         0.0702 
    118 H118      -50.0355  -26.9503   15.9142 H         1 UNK         0.0785 
    119 H119      -51.3807  -27.2624   14.8209 H         1 UNK         0.0785 
    120 H120      -51.4663  -27.7854   16.4987 H         1 UNK         0.0785 
    121 H121      -50.7750  -24.8957   14.5185 H         1 UNK         0.2998 
    122 H122      -51.3458  -22.0862   13.9167 H         1 UNK         0.0697 
    123 H123      -49.3602  -21.1352   16.0474 H         1 UNK         0.0825 
    124 H124      -50.9418  -20.4495   15.7115 H         1 UNK         0.0825 
    125 H125      -49.6657  -20.3198   14.5141 H         1 UNK         0.0825 
    126 H126      -49.6447  -23.0384   12.8767 H         1 UNK         0.3029 
    127 H127      -46.6929  -23.5133   13.0074 H         1 UNK         0.0897 
    128 H128      -46.0683  -25.9285   13.2757 H         1 UNK         0.0792 
    129 H129      -47.4166  -26.1524   14.3891 H         1 UNK         0.0792 
    130 H130      -46.0830  -25.0879   14.8157 H         1 UNK         0.0792 
    131 H131      -47.6954  -24.3745   11.2431 H         1 UNK         0.3086 
    132 H132      -50.2075  -26.8477   10.7190 H         1 UNK         0.0583 
    133 H133      -51.2918  -24.6518   10.4168 H         1 UNK         0.1020 
    134 H134      -49.8169  -23.9447    9.8352 H         1 UNK         0.1020 
    135 H135      -53.0088  -25.6035    9.1473 H         1 UNK         0.0694 
    136 H136      -53.0493  -25.8036    7.4162 H         1 UNK         0.0694 
    137 H137      -48.1241  -25.9206    9.0312 H         1 UNK         0.2989 
    138 H138      -45.6100  -28.2108   10.1498 H         1 UNK         0.1055 
    139 H139      -47.2271  -28.2001    7.5525 H         1 UNK         0.0806 
    140 H140      -46.9531  -29.5946    8.5831 H         1 UNK         0.0806 
    141 H141      -45.6007  -28.8483    7.7437 H         1 UNK         0.0806 
    142 H142      -46.0759  -26.0824    8.1445 H         1 UNK         0.3061 
    143 H143      -44.3943  -23.6265   10.0380 H         1 UNK         0.0734 
    144 H144      -42.7993  -23.4401    8.1406 H         1 UNK         0.0832 
    145 H145      -42.3818  -24.8139    9.1497 H         1 UNK         0.0832 
    146 H146      -43.1947  -25.0777    7.6138 H         1 UNK         0.0832 
    147 H147      -45.2329  -23.6934    7.3012 H         1 UNK         0.3156 
    148 H148      -48.6786  -23.1083    7.8086 H         1 UNK         0.0589 
    149 H149      -48.2726  -21.0375    6.5270 H         1 UNK         0.0808 
    150 H150      -47.6991  -20.8347    8.1725 H         1 UNK         0.0808 
    151 H151      -46.5448  -21.1167    6.8767 H         1 UNK         0.0808 
    152 H152      -47.3242  -23.0417    5.3941 H         1 UNK         0.3098 
    153 H153      -47.7830  -24.8144    3.9281 H         1 UNK         0.0720 
    154 H154      -45.6085  -25.8932    3.2950 H         1 UNK         0.0791 
    155 H155      -45.2440  -26.1878    4.9939 H         1 UNK         0.0791 
    156 H156      -45.3295  -24.5417    4.3789 H         1 UNK         0.0791 
    157 H157      -47.1867  -27.6033    4.4239 H         1 UNK         0.3028 
@<TRIPOS>BOND
     1    1    2 1    
     2    1   82 1    
     3    1   83 1    
     4    1   84 1    
     5    2    3 2    
     6    2    4 am   BACKBONE|DICT|INTERRES
     7    4    5 1    
     8    4   85 1    
     9    5    6 1    
    10    5   80 1    
    11    5   86 1    
    12    6    7 1    
    13    6   87 1    
    14    6   88 1    
    15    7    8 1    
    16    8    9 1    
    17    8   89 1    
    18    8   90 1    
    19    9   10 ar   
    20    9   14 ar   
    21   10   11 ar   
    22   10   91 1    
    23   11   12 ar   
    24   11   58 1    
    25   12   13 ar   
    26   12   92 1    
    27   13   14 ar   
    28   13   15 1    
    29   14   93 1    
    30   15   16 1    
    31   15   94 1    
    32   15   95 1    
    33   16   17 1    
    34   17   18 1    
    35   17   96 1    
    36   17   97 1    
    37   18   19 1    
    38   18   22 1    
    39   18   98 1    
    40   19   20 am   BACKBONE|DICT|INTERRES
    41   19   21 2    
    42   20   99 1    
    43   20  100 1    
    44   22   23 am   BACKBONE|DICT|INTERRES
    45   22  101 1    
    46   23   24 2    
    47   23   25 1    
    48   25   26 1    
    49   25   27 1    
    50   25  102 1    
    51   26  103 1    
    52   26  104 1    
    53   26  105 1    
    54   27   28 am   BACKBONE|DICT|INTERRES
    55   27  106 1    
    56   28   29 2    
    57   28   30 1    
    58   30   31 1    
    59   30   32 1    
    60   30  107 1    
    61   31  108 1    
    62   31  109 1    
    63   31  110 1    
    64   32   33 am   BACKBONE|DICT|INTERRES
    65   32  111 1    
    66   33   34 2    
    67   33   35 1    
    68   35   36 1    
    69   35   37 1    
    70   35  112 1    
    71   36  113 1    
    72   36  114 1    
    73   36  115 1    
    74   37   38 am   BACKBONE|DICT|INTERRES
    75   37  116 1    
    76   38   39 2    
    77   38   40 1    
    78   40   41 1    
    79   40   42 1    
    80   40  117 1    
    81   41  118 1    
    82   41  119 1    
    83   41  120 1    
    84   42   43 am   BACKBONE|DICT|INTERRES
    85   42  121 1    
    86   43   44 2    
    87   43   45 1    
    88   45   46 1    
    89   45   47 1    
    90   45  122 1    
    91   46  123 1    
    92   46  124 1    
    93   46  125 1    
    94   47   48 am   BACKBONE|DICT|INTERRES
    95   47  126 1    
    96   48   49 2    
    97   48   50 1    
    98   50   51 1    
    99   50   52 1    
   100   50  127 1    
   101   51  128 1    
   102   51  129 1    
   103   51  130 1    
   104   52   53 am   BACKBONE|DICT|INTERRES
   105   52  131 1    
   106   53   54 2    
   107   53   55 1    
   108   55   56 1    
   109   55   59 1    
   110   55  132 1    
   111   56   57 1    
   112   56  133 1    
   113   56  134 1    
   114   57   58 1    
   115   58  135 1    
   116   58  136 1    
   117   59   60 am   BACKBONE|DICT|INTERRES
   118   59  137 1    
   119   60   61 2    
   120   60   62 1    
   121   62   63 1    
   122   62   64 1    
   123   62  138 1    
   124   63  139 1    
   125   63  140 1    
   126   63  141 1    
   127   64   65 am   BACKBONE|DICT|INTERRES
   128   64  142 1    
   129   65   66 2    
   130   65   67 1    
   131   67   68 1    
   132   67   69 1    
   133   67  143 1    
   134   68  144 1    
   135   68  145 1    
   136   68  146 1    
   137   69   70 am   BACKBONE|DICT|INTERRES
   138   69  147 1    
   139   70   71 2    
   140   70   72 1    
   141   72   73 1    
   142   72   74 1    
   143   72  148 1    
   144   73  149 1    
   145   73  150 1    
   146   73  151 1    
   147   74   75 am   BACKBONE|DICT|INTERRES
   148   74  152 1    
   149   75   76 2    
   150   75   77 1    
   151   77   78 1    
   152   77   79 1    
   153   77  153 1    
   154   78  154 1    
   155   78  155 1    
   156   78  156 1    
   157   79   80 am   BACKBONE|DICT|INTERRES
   158   79  157 1    
   159   80   81 2    
@<TRIPOS>SUBSTRUCTURE
     1 UNK         1 GROUP             0       ****    0 ROOT    
