@<TRIPOS>MOLECULE
3R207
157   159    1
SMALL
USER_CHARGES


@<TRIPOS>ATOM
      1 CA        -49.6249  -27.4667    9.5775 C.3       0 UNK        -0.1975 
      2 C         -48.6778  -27.9219    8.4838 C.2       0 UNK         0.4852 
      3 O         -47.4611  -27.7984    8.6339 O.2       0 UNK        -0.5216 
      4 N         -49.2409  -28.4534    7.3924 N.am      1 UNK        -0.4461 
      5 CA        -48.5381  -29.0298    6.2417 C.3       1 UNK         0.0864 
      6 C6        -49.5300  -29.5614    5.1803 C.3       14 UNK        -0.0898 
      7 S7        -50.6720  -30.8150    5.8543 S.3       14 UNK        -0.2598 
      8 C8        -52.2938  -30.0344    5.5796 C.3       14 UNK         0.0286 
      9 C9        -52.6362  -28.9984    6.6430 C.ar      14 UNK        -0.0844 
     10 C10       -52.4314  -27.6344    6.4052 C.ar      14 UNK        -0.0881 
     11 C11       -52.8361  -26.6794    7.3455 C.ar      14 UNK        -0.0643 
     12 C12       -53.4354  -27.1015    8.5352 C.ar      14 UNK        -0.0930 
     13 C13       -53.6358  -28.4601    8.7882 C.ar      14 UNK        -0.0827 
     14 C14       -53.2286  -29.4049    7.8425 C.ar      14 UNK        -0.1249 
     15 C15       -54.3249  -28.8962   10.0698 C.3       14 UNK         0.0141 
     16 S16       -56.1290  -28.7042    9.9347 S.3       14 UNK        -0.2313 
     17 C17       -56.6458  -29.2195   11.6039 C.3       14 UNK        -0.0915 
     18 CA        -56.5238  -28.0766   12.6562 C.3       13 UNK         0.0968 
     19 C         -57.7529  -27.1167   12.7164 C.2       13 UNK         0.5732 
     20 N         -58.0488  -26.5046   13.8580 N.am      13 UNK        -0.7310 
     21 O         -58.4365  -26.8994   11.7190 O.2       13 UNK        -0.5035 
     22 N         -56.0776  -28.5838   13.9616 N.am      13 UNK        -0.4233 
     23 C         -56.7700  -29.3989   14.7724 C.2       13 UNK         0.4989 
     24 O         -57.8798  -29.8553   14.4954 O.2       13 UNK        -0.4996 
     25 CA        -56.1288  -29.7884   16.1208 C.3       12 UNK         0.0216 
     26 CB        -55.7410  -31.2769   16.1217 C.3       12 UNK        -0.1964 
     27 N         -54.9490  -28.9930   16.4704 N.am      12 UNK        -0.4276 
     28 C         -54.9598  -27.6974   16.8125 C.2       12 UNK         0.5020 
     29 O         -55.9885  -27.0370   16.9612 O.2       12 UNK        -0.5489 
     30 CA        -53.5886  -27.0135   16.9599 C.3       11 UNK         0.0294 
     31 CB        -53.1369  -27.0176   18.4285 C.3       11 UNK        -0.2019 
     32 N         -52.5339  -27.6076   16.1276 N.am      11 UNK        -0.4493 
     33 C         -52.5385  -27.6806   14.7896 C.2       11 UNK         0.4932 
     34 O         -53.4612  -27.2644   14.0885 O.2       11 UNK        -0.5029 
     35 CA        -51.3104  -28.3433   14.1407 C.3       10 UNK         0.0280 
     36 CB        -51.4236  -28.4445   12.6105 C.3       10 UNK        -0.1976 
     37 N         -50.0791  -27.6319   14.4819 N.am      10 UNK        -0.4242 
     38 C         -49.3970  -27.7927   15.6253 C.2       10 UNK         0.5072 
     39 O         -49.7556  -28.5462   16.5318 O.2       10 UNK        -0.5224 
     40 CA        -48.1350  -26.9452   15.8049 C.3       9 UNK         0.0343 
     41 CB        -47.0134  -27.4266   14.8698 C.3       9 UNK        -0.2003 
     42 N         -48.4488  -25.5395   15.5462 N.am      9 UNK        -0.4272 
     43 C         -48.3524  -24.5618   16.4570 C.2       9 UNK         0.4988 
     44 O         -47.8779  -24.7093   17.5841 O.2       9 UNK        -0.5108 
     45 CA        -48.8865  -23.1774   16.0504 C.3       8 UNK         0.0248 
     46 CB        -47.8004  -22.3767   15.3128 C.3       8 UNK        -0.2001 
     47 N         -50.0989  -23.2265   15.2277 N.am      8 UNK        -0.4140 
     48 C         -51.2840  -23.7275   15.6152 C.2       8 UNK         0.5028 
     49 O         -51.4994  -24.2119   16.7248 O.2       8 UNK        -0.5428 
     50 CA        -52.4124  -23.6880   14.5773 C.3       7 UNK         0.0264 
     51 CB        -53.1018  -22.3080   14.5998 C.3       7 UNK        -0.1988 
     52 N         -51.8631  -24.0070   13.2599 N.am      7 UNK        -0.4454 
     53 C         -52.5118  -24.1325   12.1002 C.2       7 UNK         0.5027 
     54 O         -53.7274  -23.9722   11.9834 O.2       7 UNK        -0.5083 
     55 CA        -51.6643  -24.4957   10.8523 C.3       6 UNK         0.0844 
     56 C56       -52.2785  -23.8969    9.5556 C.3       14 UNK        -0.0967 
     57 S57       -51.3907  -24.3941    8.0330 S.3       14 UNK        -0.2604 
     58 C58       -52.6925  -25.1934    7.0428 C.3       14 UNK         0.0134 
     59 N         -50.2326  -24.1592   10.9415 N.am      6 UNK        -0.4116 
     60 C         -49.2764  -24.6656   11.7317 C.2       5 UNK         0.5034 
     61 O         -49.4966  -25.3958   12.7036 O.2       5 UNK        -0.5045 
     62 CA        -47.8286  -24.2938   11.3538 C.3       5 UNK         0.0224 
     63 CB        -46.7802  -25.1187   12.1183 C.3       5 UNK        -0.1978 
     64 N         -47.5811  -24.4573    9.9180 N.am      5 UNK        -0.4737 
     65 C         -47.8723  -23.5581    8.9688 C.2       4 UNK         0.5027 
     66 O         -48.4394  -22.4924    9.2135 O.2       4 UNK        -0.5211 
     67 CA        -47.5133  -23.9272    7.5152 C.3       4 UNK         0.0297 
     68 CB        -47.2331  -22.6880    6.6403 C.3       4 UNK        -0.1993 
     69 N         -46.4243  -24.9061    7.4056 N.am      4 UNK        -0.4486 
     70 C         -45.1544  -24.7702    7.8239 C.2       3 UNK         0.4961 
     71 O         -44.7085  -23.7513    8.3519 O.2       3 UNK        -0.5105 
     72 CA        -44.2185  -25.9810    7.6492 C.3       3 UNK         0.0299 
     73 CB        -44.0128  -26.6961    8.9953 C.3       3 UNK        -0.1972 
     74 N         -44.7063  -26.9464    6.6618 N.am      3 UNK        -0.4305 
     75 C         -44.6554  -26.7641    5.3339 C.2       2 UNK         0.5006 
     76 O         -44.1063  -25.8010    4.7975 O.2       2 UNK        -0.5106 
     77 CA        -45.3423  -27.8206    4.4472 C.3       2 UNK         0.0296 
     78 CB        -44.3042  -28.8057    3.8850 C.3       2 UNK        -0.2002 
     79 N         -46.4096  -28.5741    5.1165 N.am      2 UNK        -0.4032 
     80 C         -47.5473  -28.0442    5.5890 C.2       1 UNK         0.5000 
     81 O         -47.8255  -26.8440    5.5193 O.2       1 UNK        -0.5238 
     82 H82       -49.8673  -26.4200    9.4224 H         1 UNK         0.0889 
     83 H83       -49.1614  -27.5765   10.5574 H         1 UNK         0.0889 
     84 H84       -50.5530  -28.0385    9.5701 H         1 UNK         0.0889 
     85 H85       -50.2492  -28.5063    7.3383 H         1 UNK         0.3028 
     86 H86       -47.9630  -29.8744    6.6271 H         1 UNK         0.0864 
     87 H87       -50.0972  -28.7388    4.7412 H         1 UNK         0.0720 
     88 H88       -48.9904  -30.0280    4.3536 H         1 UNK         0.0720 
     89 H89       -53.0554  -30.8157    5.5833 H         1 UNK         0.0814 
     90 H90       -52.3310  -29.5932    4.5823 H         1 UNK         0.0814 
     91 H91       -51.9909  -27.3128    5.4712 H         1 UNK         0.1469 
     92 H92       -53.7770  -26.3749    9.2575 H         1 UNK         0.1381 
     93 H93       -53.4006  -30.4570    8.0257 H         1 UNK         0.1206 
     94 H94       -53.9615  -28.2910   10.9008 H         1 UNK         0.0813 
     95 H95       -54.0806  -29.9333   10.3045 H         1 UNK         0.0813 
     96 H96       -56.0267  -30.0728   11.8860 H         1 UNK         0.0638 
     97 H97       -57.6662  -29.6039   11.5596 H         1 UNK         0.0638 
     98 H98       -55.7050  -27.4267   12.3471 H         1 UNK         0.0568 
     99 H99       -57.4929  -26.6631   14.6847 H         1 UNK         0.3450 
    100 H100      -58.8384  -25.8796   13.8915 H         1 UNK         0.3450 
    101 H101      -55.1772  -28.2275   14.2641 H         1 UNK         0.2987 
    102 H102      -56.8841  -29.6299   16.8935 H         1 UNK         0.0766 
    103 H103      -56.6058  -31.9069   15.9080 H         1 UNK         0.0798 
    104 H104      -55.3520  -31.5862   17.0921 H         1 UNK         0.0798 
    105 H105      -54.9839  -31.4981   15.3683 H         1 UNK         0.0798 
    106 H106      -54.0516  -29.4471   16.3801 H         1 UNK         0.3198 
    107 H107      -53.7118  -25.9760   16.6446 H         1 UNK         0.0843 
    108 H108      -52.9596  -28.0291   18.7959 H         1 UNK         0.0831 
    109 H109      -53.8929  -26.5635   19.0707 H         1 UNK         0.0831 
    110 H110      -52.2182  -26.4448   18.5594 H         1 UNK         0.0831 
    111 H111      -51.7115  -27.9625   16.6063 H         1 UNK         0.3133 
    112 H112      -51.2506  -29.3625   14.5285 H         1 UNK         0.0566 
    113 H113      -50.5459  -28.9261   12.1800 H         1 UNK         0.0814 
    114 H114      -51.5342  -27.4650   12.1467 H         1 UNK         0.0814 
    115 H115      -52.2873  -29.0465   12.3293 H         1 UNK         0.0814 
    116 H116      -49.7522  -26.9563   13.7980 H         1 UNK         0.3091 
    117 H117      -47.7936  -27.0803   16.8333 H         1 UNK         0.0702 
    118 H118      -46.1258  -26.8002   14.9593 H         1 UNK         0.0785 
    119 H119      -47.3233  -27.4272   13.8253 H         1 UNK         0.0785 
    120 H120      -46.7165  -28.4465   15.1173 H         1 UNK         0.0785 
    121 H121      -48.8564  -25.3239   14.6448 H         1 UNK         0.2998 
    122 H122      -49.1379  -22.6430   16.9690 H         1 UNK         0.0697 
    123 H123      -47.5310  -22.8357   14.3613 H         1 UNK         0.0825 
    124 H124      -46.8904  -22.3122   15.9113 H         1 UNK         0.0825 
    125 H125      -48.1255  -21.3554   15.1138 H         1 UNK         0.0825 
    126 H126      -50.0451  -22.7768   14.3260 H         1 UNK         0.3029 
    127 H127      -53.1418  -24.4579   14.8355 H         1 UNK         0.0897 
    128 H128      -52.4384  -21.5178   14.2468 H         1 UNK         0.0792 
    129 H129      -53.4142  -22.0452   15.6116 H         1 UNK         0.0792 
    130 H130      -53.9983  -22.2935   13.9807 H         1 UNK         0.0792 
    131 H131      -50.8948  -24.3127   13.2492 H         1 UNK         0.3086 
    132 H132      -51.7271  -25.5810   10.7687 H         1 UNK         0.0583 
    133 H133      -53.3310  -24.1658    9.4601 H         1 UNK         0.1020 
    134 H134      -52.2638  -22.8065    9.6065 H         1 UNK         0.1020 
    135 H135      -53.6471  -24.6880    7.1951 H         1 UNK         0.0694 
    136 H136      -52.4473  -25.0498    5.9894 H         1 UNK         0.0694 
    137 H137      -49.9070  -23.5352   10.2105 H         1 UNK         0.2989 
    138 H138      -47.6882  -23.2443   11.6226 H         1 UNK         0.1055 
    139 H139      -45.7681  -24.8103   11.8549 H         1 UNK         0.0806 
    140 H140      -46.8701  -26.1827   11.8977 H         1 UNK         0.0806 
    141 H141      -46.8809  -24.9882   13.1953 H         1 UNK         0.0806 
    142 H142      -47.1585  -25.3283    9.6257 H         1 UNK         0.3061 
    143 H143      -48.3958  -24.4225    7.1076 H         1 UNK         0.0734 
    144 H144      -46.4016  -22.0983    7.0271 H         1 UNK         0.0832 
    145 H145      -46.9965  -22.9724    5.6150 H         1 UNK         0.0832 
    146 H146      -48.1044  -22.0331    6.6004 H         1 UNK         0.0832 
    147 H147      -46.6910  -25.7842    6.9718 H         1 UNK         0.3156 
    148 H148      -43.2499  -25.6024    7.3155 H         1 UNK         0.0589 
    149 H149      -44.9462  -27.1027    9.3862 H         1 UNK         0.0808 
    150 H150      -43.6192  -26.0091    9.7459 H         1 UNK         0.0808 
    151 H151      -43.3006  -27.5164    8.9047 H         1 UNK         0.0808 
    152 H152      -45.1846  -27.7603    7.0224 H         1 UNK         0.3098 
    153 H153      -45.7951  -27.2878    3.6081 H         1 UNK         0.0720 
    154 H154      -43.5116  -28.2768    3.3534 H         1 UNK         0.0791 
    155 H155      -44.7570  -29.5001    3.1768 H         1 UNK         0.0791 
    156 H156      -43.8317  -29.3901    4.6756 H         1 UNK         0.0791 
    157 H157      -46.2622  -29.5694    5.2087 H         1 UNK         0.3028 
@<TRIPOS>BOND
     1    1    2 1    
     2    1   82 1    
     3    1   83 1    
     4    1   84 1    
     5    2    3 2    
     6    2    4 am   BACKBONE|DICT|INTERRES
     7    4    5 1    
     8    4   85 1    
     9    5    6 1    
    10    5   80 1    
    11    5   86 1    
    12    6    7 1    
    13    6   87 1    
    14    6   88 1    
    15    7    8 1    
    16    8    9 1    
    17    8   89 1    
    18    8   90 1    
    19    9   10 ar   
    20    9   14 ar   
    21   10   11 ar   
    22   10   91 1    
    23   11   12 ar   
    24   11   58 1    
    25   12   13 ar   
    26   12   92 1    
    27   13   14 ar   
    28   13   15 1    
    29   14   93 1    
    30   15   16 1    
    31   15   94 1    
    32   15   95 1    
    33   16   17 1    
    34   17   18 1    
    35   17   96 1    
    36   17   97 1    
    37   18   19 1    
    38   18   22 1    
    39   18   98 1    
    40   19   20 am   BACKBONE|DICT|INTERRES
    41   19   21 2    
    42   20   99 1    
    43   20  100 1    
    44   22   23 am   BACKBONE|DICT|INTERRES
    45   22  101 1    
    46   23   24 2    
    47   23   25 1    
    48   25   26 1    
    49   25   27 1    
    50   25  102 1    
    51   26  103 1    
    52   26  104 1    
    53   26  105 1    
    54   27   28 am   BACKBONE|DICT|INTERRES
    55   27  106 1    
    56   28   29 2    
    57   28   30 1    
    58   30   31 1    
    59   30   32 1    
    60   30  107 1    
    61   31  108 1    
    62   31  109 1    
    63   31  110 1    
    64   32   33 am   BACKBONE|DICT|INTERRES
    65   32  111 1    
    66   33   34 2    
    67   33   35 1    
    68   35   36 1    
    69   35   37 1    
    70   35  112 1    
    71   36  113 1    
    72   36  114 1    
    73   36  115 1    
    74   37   38 am   BACKBONE|DICT|INTERRES
    75   37  116 1    
    76   38   39 2    
    77   38   40 1    
    78   40   41 1    
    79   40   42 1    
    80   40  117 1    
    81   41  118 1    
    82   41  119 1    
    83   41  120 1    
    84   42   43 am   BACKBONE|DICT|INTERRES
    85   42  121 1    
    86   43   44 2    
    87   43   45 1    
    88   45   46 1    
    89   45   47 1    
    90   45  122 1    
    91   46  123 1    
    92   46  124 1    
    93   46  125 1    
    94   47   48 am   BACKBONE|DICT|INTERRES
    95   47  126 1    
    96   48   49 2    
    97   48   50 1    
    98   50   51 1    
    99   50   52 1    
   100   50  127 1    
   101   51  128 1    
   102   51  129 1    
   103   51  130 1    
   104   52   53 am   BACKBONE|DICT|INTERRES
   105   52  131 1    
   106   53   54 2    
   107   53   55 1    
   108   55   56 1    
   109   55   59 1    
   110   55  132 1    
   111   56   57 1    
   112   56  133 1    
   113   56  134 1    
   114   57   58 1    
   115   58  135 1    
   116   58  136 1    
   117   59   60 am   BACKBONE|DICT|INTERRES
   118   59  137 1    
   119   60   61 2    
   120   60   62 1    
   121   62   63 1    
   122   62   64 1    
   123   62  138 1    
   124   63  139 1    
   125   63  140 1    
   126   63  141 1    
   127   64   65 am   BACKBONE|DICT|INTERRES
   128   64  142 1    
   129   65   66 2    
   130   65   67 1    
   131   67   68 1    
   132   67   69 1    
   133   67  143 1    
   134   68  144 1    
   135   68  145 1    
   136   68  146 1    
   137   69   70 am   BACKBONE|DICT|INTERRES
   138   69  147 1    
   139   70   71 2    
   140   70   72 1    
   141   72   73 1    
   142   72   74 1    
   143   72  148 1    
   144   73  149 1    
   145   73  150 1    
   146   73  151 1    
   147   74   75 am   BACKBONE|DICT|INTERRES
   148   74  152 1    
   149   75   76 2    
   150   75   77 1    
   151   77   78 1    
   152   77   79 1    
   153   77  153 1    
   154   78  154 1    
   155   78  155 1    
   156   78  156 1    
   157   79   80 am   BACKBONE|DICT|INTERRES
   158   79  157 1    
   159   80   81 2    
@<TRIPOS>SUBSTRUCTURE
     1 UNK         1 GROUP             0       ****    0 ROOT    
