@<TRIPOS>MOLECULE
3R207
157   159    1
SMALL
USER_CHARGES


@<TRIPOS>ATOM
      1 CA        -50.3759  -32.3809    8.8159 C.3       0 UNK        -0.1975 
      2 C         -50.6127  -31.4070    7.6716 C.2       0 UNK         0.4852 
      3 O         -51.0291  -31.8217    6.5890 O.2       0 UNK        -0.5216 
      4 N         -50.3573  -30.1153    7.9103 N.am      1 UNK        -0.4461 
      5 CA        -50.4435  -29.0469    6.9116 C.3       1 UNK         0.0864 
      6 C6        -50.8819  -27.7053    7.5557 C.3       14 UNK        -0.0898 
      7 S7        -49.7355  -27.0516    8.8244 S.3       14 UNK        -0.2598 
      8 C8        -50.7970  -27.0156   10.3042 C.3       14 UNK         0.0286 
      9 C9        -52.0112  -26.1056   10.1515 C.ar      14 UNK        -0.0844 
     10 C10       -51.8673  -24.7809    9.7296 C.ar      14 UNK        -0.0881 
     11 C11       -52.9779  -23.9328    9.6305 C.ar      14 UNK        -0.0643 
     12 C12       -54.2491  -24.4386    9.9200 C.ar      14 UNK        -0.0930 
     13 C13       -54.4105  -25.7679   10.3178 C.ar      14 UNK        -0.0827 
     14 C14       -53.2878  -26.5875   10.4480 C.ar      14 UNK        -0.1249 
     15 C15       -55.7943  -26.3370   10.5847 C.3       14 UNK         0.0141 
     16 S16       -56.1192  -26.4743   12.3668 S.3       14 UNK        -0.2313 
     17 C17       -57.4032  -27.7720   12.3918 C.3       14 UNK        -0.0915 
     18 CA        -56.8647  -29.1211   12.9535 C.3       13 UNK         0.0968 
     19 C         -57.9900  -30.1603   13.2485 C.2       13 UNK         0.5732 
     20 N         -57.7125  -31.4583   13.2080 N.am      13 UNK        -0.7310 
     21 O         -59.1229  -29.7929   13.5523 O.2       13 UNK        -0.5035 
     22 N         -55.7168  -29.6460   12.1896 N.am      13 UNK        -0.4233 
     23 C         -55.7416  -30.1319   10.9387 C.2       13 UNK         0.4989 
     24 O         -56.7692  -30.2185   10.2657 O.2       13 UNK        -0.4996 
     25 CA        -54.4075  -30.5860   10.3081 C.3       12 UNK         0.0216 
     26 CB        -54.1988  -29.9475    8.9216 C.3       12 UNK        -0.1964 
     27 N         -53.2406  -30.3006   11.1501 N.am      12 UNK        -0.4276 
     28 C         -52.7400  -31.1292   12.0741 C.2       12 UNK         0.5020 
     29 O         -53.1744  -32.2612   12.2866 O.2       12 UNK        -0.5489 
     30 CA        -51.5658  -30.6005   12.9196 C.3       11 UNK         0.0294 
     31 CB        -50.2236  -30.9796   12.2734 C.3       11 UNK        -0.2019 
     32 N         -51.5741  -29.1553   13.1864 N.am      11 UNK        -0.4493 
     33 C         -52.5529  -28.4761   13.8050 C.2       11 UNK         0.4932 
     34 O         -53.6474  -28.9674   14.0811 O.2       11 UNK        -0.5029 
     35 CA        -52.2332  -27.0157   14.1953 C.3       10 UNK         0.0280 
     36 CB        -53.2499  -26.4395   15.2034 C.3       10 UNK        -0.1976 
     37 N         -50.8557  -26.8502   14.6877 N.am      10 UNK        -0.4242 
     38 C         -50.2988  -27.4855   15.7333 C.2       10 UNK         0.5072 
     39 O         -50.9095  -28.2444   16.4868 O.2       10 UNK        -0.5224 
     40 CA        -48.7986  -27.2768   15.9664 C.3       9 UNK         0.0343 
     41 CB        -47.9735  -28.1419   14.9960 C.3       9 UNK        -0.2003 
     42 N         -48.3949  -25.8727   15.8584 N.am      9 UNK        -0.4272 
     43 C         -47.4439  -25.3143   16.6203 C.2       9 UNK         0.4988 
     44 O         -46.8369  -25.9165   17.5075 O.2       9 UNK        -0.5108 
     45 CA        -47.0761  -23.8457   16.3536 C.3       8 UNK         0.0248 
     46 CB        -45.8943  -23.7503   15.3745 C.3       8 UNK        -0.2001 
     47 N         -48.1840  -23.0303   15.8555 N.am      8 UNK        -0.4140 
     48 C         -49.1751  -22.5458   16.6173 C.2       8 UNK         0.5028 
     49 O         -49.3128  -22.8099   17.8122 O.2       8 UNK        -0.5428 
     50 CA        -50.1590  -21.5729   15.9458 C.3       7 UNK         0.0264 
     51 CB        -49.7258  -20.1194   16.2007 C.3       7 UNK        -0.1988 
     52 N         -50.2574  -21.7963   14.5006 N.am      7 UNK        -0.4454 
     53 C         -51.1865  -22.5716   13.9266 C.2       7 UNK         0.5027 
     54 O         -52.1016  -23.1168   14.5423 O.2       7 UNK        -0.5083 
     55 CA        -51.0555  -22.7898   12.4084 C.3       6 UNK         0.0844 
     56 C56       -51.6569  -21.5918   11.6239 C.3       14 UNK        -0.0967 
     57 S57       -51.3436  -21.6456    9.8233 S.3       14 UNK        -0.2604 
     58 C58       -52.8342  -22.4800    9.1838 C.3       14 UNK         0.0134 
     59 N         -49.6860  -23.1197   11.9926 N.am      6 UNK        -0.4116 
     60 C         -48.9864  -24.1964   12.3737 C.2       5 UNK         0.5034 
     61 O         -49.3516  -24.9708   13.2612 O.2       5 UNK        -0.5045 
     62 CA        -47.6774  -24.4762   11.6084 C.3       5 UNK         0.0224 
     63 CB        -47.0468  -25.8295   11.9905 C.3       5 UNK        -0.1978 
     64 N         -47.8819  -24.4624   10.1578 N.am      5 UNK        -0.4737 
     65 C         -47.9373  -23.3722    9.3825 C.2       4 UNK         0.5027 
     66 O         -47.8357  -22.2274    9.8255 O.2       4 UNK        -0.5211 
     67 CA        -48.1724  -23.6173    7.8781 C.3       4 UNK         0.0297 
     68 CB        -47.8760  -22.3764    7.0105 C.3       4 UNK        -0.1993 
     69 N         -47.4565  -24.8012    7.3813 N.am      4 UNK        -0.4486 
     70 C         -46.1285  -24.9993    7.3613 C.2       3 UNK         0.4961 
     71 O         -45.2982  -24.1596    7.7101 O.2       3 UNK        -0.5105 
     72 CA        -45.6323  -26.3827    6.9016 C.3       3 UNK         0.0299 
     73 CB        -45.2575  -27.2378    8.1237 C.3       3 UNK        -0.1972 
     74 N         -46.5980  -27.1261    6.0887 N.am      3 UNK        -0.4305 
     75 C         -46.9572  -26.8398    4.8314 C.2       2 UNK         0.5006 
     76 O         -46.4997  -25.8919    4.1927 O.2       2 UNK        -0.5106 
     77 CA        -48.0148  -27.7486    4.1704 C.3       2 UNK         0.0296 
     78 CB        -47.3537  -28.9741    3.5088 C.3       2 UNK        -0.2002 
     79 N         -49.1337  -28.1423    5.0457 N.am      2 UNK        -0.4032 
     80 C         -49.1106  -28.9119    6.1454 C.2       1 UNK         0.5000 
     81 O         -48.0859  -29.4411    6.5880 O.2       1 UNK        -0.5238 
     82 H82       -51.2810  -32.4880    9.4135 H         1 UNK         0.0889 
     83 H83       -49.5673  -32.0434    9.4634 H         1 UNK         0.0889 
     84 H84       -50.1037  -33.3628    8.4296 H         1 UNK         0.0889 
     85 H85       -49.9480  -29.8393    8.7903 H         1 UNK         0.3028 
     86 H86       -51.2052  -29.3180    6.1769 H         1 UNK         0.0864 
     87 H87       -51.0111  -26.9350    6.7936 H         1 UNK         0.0720 
     88 H88       -51.8727  -27.8345    7.9930 H         1 UNK         0.0720 
     89 H89       -50.2082  -26.6765   11.1562 H         1 UNK         0.0814 
     90 H90       -51.1023  -28.0374   10.5273 H         1 UNK         0.0814 
     91 H91       -50.8826  -24.4055    9.4959 H         1 UNK         0.1469 
     92 H92       -55.1166  -23.7997    9.8263 H         1 UNK         0.1381 
     93 H93       -53.4207  -27.6031   10.7829 H         1 UNK         0.1206 
     94 H94       -55.8716  -27.3165   10.1128 H         1 UNK         0.0813 
     95 H95       -56.5664  -25.7169   10.1270 H         1 UNK         0.0813 
     96 H96       -57.8287  -27.9064   11.3963 H         1 UNK         0.0638 
     97 H97       -58.2146  -27.3951   13.0165 H         1 UNK         0.0638 
     98 H98       -56.4593  -28.9025   13.9418 H         1 UNK         0.0568 
     99 H99       -56.7849  -31.7754   12.9761 H         1 UNK         0.3450 
    100 H100      -58.4404  -32.1251   13.4101 H         1 UNK         0.3450 
    101 H101      -54.8362  -29.6062   12.6928 H         1 UNK         0.2987 
    102 H102      -54.4842  -31.6654   10.1611 H         1 UNK         0.0766 
    103 H103      -54.9980  -30.2341    8.2367 H         1 UNK         0.0798 
    104 H104      -53.2636  -30.2743    8.4694 H         1 UNK         0.0798 
    105 H105      -54.1893  -28.8593    8.9631 H         1 UNK         0.0798 
    106 H106      -52.8249  -29.3876   11.0635 H         1 UNK         0.3198 
    107 H107      -51.6272  -31.1010   13.8885 H         1 UNK         0.0843 
    108 H108      -50.0629  -30.4501   11.3343 H         1 UNK         0.0831 
    109 H109      -50.1802  -32.0488   12.0600 H         1 UNK         0.0831 
    110 H110      -49.3866  -30.7525   12.9341 H         1 UNK         0.0831 
    111 H111      -50.7027  -28.6708   13.0331 H         1 UNK         0.3133 
    112 H112      -52.3050  -26.4246   13.2812 H         1 UNK         0.0566 
    113 H113      -52.9999  -25.4165   15.4809 H         1 UNK         0.0814 
    114 H114      -53.2958  -27.0316   16.1177 H         1 UNK         0.0814 
    115 H115      -54.2536  -26.4227   14.7781 H         1 UNK         0.0814 
    116 H116      -50.2727  -26.2250   14.1327 H         1 UNK         0.3091 
    117 H117      -48.6002  -27.6300   16.9809 H         1 UNK         0.0702 
    118 H118      -46.9068  -28.0688   15.2088 H         1 UNK         0.0785 
    119 H119      -48.1290  -27.8463   13.9586 H         1 UNK         0.0785 
    120 H120      -48.2486  -29.1942   15.0807 H         1 UNK         0.0785 
    121 H121      -48.8406  -25.3191   15.1345 H         1 UNK         0.2998 
    122 H122      -46.7484  -23.4219   17.3058 H         1 UNK         0.0697 
    123 H123      -46.1616  -24.0969   14.3775 H         1 UNK         0.0825 
    124 H124      -45.0536  -24.3564   15.7157 H         1 UNK         0.0825 
    125 H125      -45.5350  -22.7247   15.2870 H         1 UNK         0.0825 
    126 H126      -48.1546  -22.7678   14.8836 H         1 UNK         0.3029 
    127 H127      -51.1352  -21.7186   16.4144 H         1 UNK         0.0897 
    128 H128      -48.7473  -19.9041   15.7697 H         1 UNK         0.0792 
    129 H129      -49.6628  -19.9135   17.2704 H         1 UNK         0.0792 
    130 H130      -50.4415  -19.4134   15.7789 H         1 UNK         0.0792 
    131 H131      -49.5651  -21.3532   13.9134 H         1 UNK         0.3086 
    132 H132      -51.6619  -23.6682   12.1838 H         1 UNK         0.0583 
    133 H133      -52.7328  -21.5285   11.7988 H         1 UNK         0.1020 
    134 H134      -51.2412  -20.6496   11.9865 H         1 UNK         0.1020 
    135 H135      -53.7094  -21.8984    9.4777 H         1 UNK         0.0694 
    136 H136      -52.8011  -22.4588    8.0940 H         1 UNK         0.0694 
    137 H137      -49.2993  -22.5511   11.2461 H         1 UNK         0.2989 
    138 H138      -46.9722  -23.6863   11.8766 H         1 UNK         0.1055 
    139 H139      -46.0925  -25.9767   11.4843 H         1 UNK         0.0806 
    140 H140      -47.6952  -26.6659   11.7273 H         1 UNK         0.0806 
    141 H141      -46.8534  -25.8936   13.0612 H         1 UNK         0.0806 
    142 H142      -48.0192  -25.3610    9.7157 H         1 UNK         0.3061 
    143 H143      -49.2352  -23.8391    7.7721 H         1 UNK         0.0734 
    144 H144      -46.8433  -22.0433    7.1166 H         1 UNK         0.0832 
    145 H145      -48.0582  -22.5770    5.9549 H         1 UNK         0.0832 
    146 H146      -48.5163  -21.5410    7.2968 H         1 UNK         0.0832 
    147 H147      -48.0386  -25.5730    7.0879 H         1 UNK         0.3156 
    148 H148      -44.7337  -26.2269    6.3012 H         1 UNK         0.0589 
    149 H149      -46.1253  -27.4471    8.7511 H         1 UNK         0.0808 
    150 H150      -44.5195  -26.7301    8.7466 H         1 UNK         0.0808 
    151 H151      -44.8239  -28.1917    7.8227 H         1 UNK         0.0808 
    152 H152      -47.0112  -27.9603    6.5027 H         1 UNK         0.3098 
    153 H153      -48.4677  -27.1579    3.3722 H         1 UNK         0.0720 
    154 H154      -46.6007  -28.6640    2.7830 H         1 UNK         0.0791 
    155 H155      -48.0863  -29.5802    2.9759 H         1 UNK         0.0791 
    156 H156      -46.8545  -29.6146    4.2365 H         1 UNK         0.0791 
    157 H157      -50.0219  -27.7336    4.7883 H         1 UNK         0.3028 
@<TRIPOS>BOND
     1    1    2 1    
     2    1   82 1    
     3    1   83 1    
     4    1   84 1    
     5    2    3 2    
     6    2    4 am   BACKBONE|DICT|INTERRES
     7    4    5 1    
     8    4   85 1    
     9    5    6 1    
    10    5   80 1    
    11    5   86 1    
    12    6    7 1    
    13    6   87 1    
    14    6   88 1    
    15    7    8 1    
    16    8    9 1    
    17    8   89 1    
    18    8   90 1    
    19    9   10 ar   
    20    9   14 ar   
    21   10   11 ar   
    22   10   91 1    
    23   11   12 ar   
    24   11   58 1    
    25   12   13 ar   
    26   12   92 1    
    27   13   14 ar   
    28   13   15 1    
    29   14   93 1    
    30   15   16 1    
    31   15   94 1    
    32   15   95 1    
    33   16   17 1    
    34   17   18 1    
    35   17   96 1    
    36   17   97 1    
    37   18   19 1    
    38   18   22 1    
    39   18   98 1    
    40   19   20 am   BACKBONE|DICT|INTERRES
    41   19   21 2    
    42   20   99 1    
    43   20  100 1    
    44   22   23 am   BACKBONE|DICT|INTERRES
    45   22  101 1    
    46   23   24 2    
    47   23   25 1    
    48   25   26 1    
    49   25   27 1    
    50   25  102 1    
    51   26  103 1    
    52   26  104 1    
    53   26  105 1    
    54   27   28 am   BACKBONE|DICT|INTERRES
    55   27  106 1    
    56   28   29 2    
    57   28   30 1    
    58   30   31 1    
    59   30   32 1    
    60   30  107 1    
    61   31  108 1    
    62   31  109 1    
    63   31  110 1    
    64   32   33 am   BACKBONE|DICT|INTERRES
    65   32  111 1    
    66   33   34 2    
    67   33   35 1    
    68   35   36 1    
    69   35   37 1    
    70   35  112 1    
    71   36  113 1    
    72   36  114 1    
    73   36  115 1    
    74   37   38 am   BACKBONE|DICT|INTERRES
    75   37  116 1    
    76   38   39 2    
    77   38   40 1    
    78   40   41 1    
    79   40   42 1    
    80   40  117 1    
    81   41  118 1    
    82   41  119 1    
    83   41  120 1    
    84   42   43 am   BACKBONE|DICT|INTERRES
    85   42  121 1    
    86   43   44 2    
    87   43   45 1    
    88   45   46 1    
    89   45   47 1    
    90   45  122 1    
    91   46  123 1    
    92   46  124 1    
    93   46  125 1    
    94   47   48 am   BACKBONE|DICT|INTERRES
    95   47  126 1    
    96   48   49 2    
    97   48   50 1    
    98   50   51 1    
    99   50   52 1    
   100   50  127 1    
   101   51  128 1    
   102   51  129 1    
   103   51  130 1    
   104   52   53 am   BACKBONE|DICT|INTERRES
   105   52  131 1    
   106   53   54 2    
   107   53   55 1    
   108   55   56 1    
   109   55   59 1    
   110   55  132 1    
   111   56   57 1    
   112   56  133 1    
   113   56  134 1    
   114   57   58 1    
   115   58  135 1    
   116   58  136 1    
   117   59   60 am   BACKBONE|DICT|INTERRES
   118   59  137 1    
   119   60   61 2    
   120   60   62 1    
   121   62   63 1    
   122   62   64 1    
   123   62  138 1    
   124   63  139 1    
   125   63  140 1    
   126   63  141 1    
   127   64   65 am   BACKBONE|DICT|INTERRES
   128   64  142 1    
   129   65   66 2    
   130   65   67 1    
   131   67   68 1    
   132   67   69 1    
   133   67  143 1    
   134   68  144 1    
   135   68  145 1    
   136   68  146 1    
   137   69   70 am   BACKBONE|DICT|INTERRES
   138   69  147 1    
   139   70   71 2    
   140   70   72 1    
   141   72   73 1    
   142   72   74 1    
   143   72  148 1    
   144   73  149 1    
   145   73  150 1    
   146   73  151 1    
   147   74   75 am   BACKBONE|DICT|INTERRES
   148   74  152 1    
   149   75   76 2    
   150   75   77 1    
   151   77   78 1    
   152   77   79 1    
   153   77  153 1    
   154   78  154 1    
   155   78  155 1    
   156   78  156 1    
   157   79   80 am   BACKBONE|DICT|INTERRES
   158   79  157 1    
   159   80   81 2    
@<TRIPOS>SUBSTRUCTURE
     1 UNK         1 GROUP             0       ****    0 ROOT    
