@<TRIPOS>MOLECULE
3R207
157   159    1
SMALL
USER_CHARGES


@<TRIPOS>ATOM
      1 CA        -53.1841  -23.7647    3.0617 C.3       0 UNK        -0.1975 
      2 C         -52.1645  -23.9572    4.1748 C.2       0 UNK         0.4852 
      3 O         -51.4154  -23.0296    4.4858 O.2       0 UNK        -0.5216 
      4 N         -52.1366  -25.1500    4.7818 N.am      1 UNK        -0.4461 
      5 CA        -51.1752  -25.5435    5.8158 C.3       1 UNK         0.0864 
      6 C6        -51.6843  -26.7611    6.6312 C.3       14 UNK        -0.0898 
      7 S7        -52.0348  -28.2488    5.6272 S.3       14 UNK        -0.2598 
      8 C8        -52.9504  -29.2871    6.8197 C.3       14 UNK         0.0286 
      9 C9        -52.1436  -29.8226    8.0060 C.ar      14 UNK        -0.0844 
     10 C10       -50.7419  -29.8174    8.0422 C.ar      14 UNK        -0.0881 
     11 C11       -50.0526  -30.3065    9.1557 C.ar      14 UNK        -0.0643 
     12 C12       -50.7680  -30.8371   10.2305 C.ar      14 UNK        -0.0930 
     13 C13       -52.1644  -30.8592   10.2066 C.ar      14 UNK        -0.0827 
     14 C14       -52.8435  -30.3505    9.0959 C.ar      14 UNK        -0.1249 
     15 C15       -52.9368  -31.4007   11.3974 C.3       14 UNK         0.0141 
     16 S16       -52.9230  -30.1798   12.7360 S.3       14 UNK        -0.2313 
     17 C17       -54.1519  -30.8594   13.8965 C.3       14 UNK        -0.0915 
     18 CA        -55.6041  -30.3761   13.6321 C.3       13 UNK         0.0968 
     19 C         -56.5605  -30.8801   14.7530 C.2       13 UNK         0.5732 
     20 N         -57.1651  -30.0140   15.5605 N.am      13 UNK        -0.7310 
     21 O         -56.7620  -32.0847   14.8881 O.2       13 UNK        -0.5035 
     22 N         -55.6867  -28.9282   13.3845 N.am      13 UNK        -0.4233 
     23 C         -56.7189  -28.3287   12.7757 C.2       13 UNK         0.4989 
     24 O         -57.6624  -28.9478   12.2793 O.2       13 UNK        -0.4996 
     25 CA        -56.7060  -26.7881   12.6983 C.3       12 UNK         0.0216 
     26 CB        -58.1271  -26.1867   12.6558 C.3       12 UNK        -0.1964 
     27 N         -55.9096  -26.1395   13.7450 N.am      12 UNK        -0.4276 
     28 C         -56.0650  -26.2277   15.0732 C.2       12 UNK         0.5020 
     29 O         -56.9211  -26.9175   15.6337 O.2       12 UNK        -0.5489 
     30 CA        -55.0513  -25.4291   15.9139 C.3       11 UNK         0.0294 
     31 CB        -55.7625  -24.6161   17.0091 C.3       11 UNK        -0.2019 
     32 N         -53.9977  -26.2434   16.5315 N.am      11 UNK        -0.4493 
     33 C         -53.2823  -27.2185   15.9531 C.2       11 UNK         0.4932 
     34 O         -53.4816  -27.6550   14.8210 O.2       11 UNK        -0.5029 
     35 CA        -52.0733  -27.7146   16.7524 C.3       10 UNK         0.0280 
     36 CB        -51.6894  -29.1667   16.4188 C.3       10 UNK        -0.1976 
     37 N         -50.9709  -26.8332   16.3899 N.am      10 UNK        -0.4242 
     38 C         -50.4835  -25.8572   17.1645 C.2       10 UNK         0.5072 
     39 O         -50.7895  -25.6957   18.3470 O.2       10 UNK        -0.5224 
     40 CA        -49.5274  -24.8609   16.4890 C.3       9 UNK         0.0343 
     41 CB        -48.1440  -25.4918   16.2600 C.3       9 UNK        -0.2003 
     42 N         -50.0490  -24.3547   15.2173 N.am      9 UNK        -0.4272 
     43 C         -51.1728  -23.6363   15.0638 C.2       9 UNK         0.4988 
     44 O         -51.8945  -23.2760   15.9937 O.2       9 UNK        -0.5108 
     45 CA        -51.5650  -23.2655   13.6263 C.3       8 UNK         0.0248 
     46 CB        -50.7428  -22.0682   13.1212 C.3       8 UNK        -0.2001 
     47 N         -51.3828  -24.4115   12.7337 N.am      8 UNK        -0.4140 
     48 C         -52.3544  -25.2798   12.4204 C.2       8 UNK         0.5028 
     49 O         -53.5341  -25.1165   12.7362 O.2       8 UNK        -0.5428 
     50 CA        -51.9739  -26.5337   11.6078 C.3       7 UNK         0.0264 
     51 CB        -52.5565  -26.4608   10.1879 C.3       7 UNK        -0.1988 
     52 N         -50.5332  -26.7956   11.5194 N.am      7 UNK        -0.4454 
     53 C         -49.7758  -27.2329   12.5344 C.2       7 UNK         0.5027 
     54 O         -50.1990  -27.4260   13.6743 O.2       7 UNK        -0.5083 
     55 CA        -48.2678  -27.3979   12.2554 C.3       6 UNK         0.0844 
     56 C56       -47.9324  -28.7265   11.5211 C.3       14 UNK        -0.0967 
     57 S57       -47.9465  -28.6058    9.6923 S.3       14 UNK        -0.2604 
     58 C58       -48.5347  -30.2522    9.1910 C.3       14 UNK         0.0134 
     59 N         -47.6656  -26.2365   11.5937 N.am      6 UNK        -0.4116 
     60 C         -47.7350  -24.9544   11.9714 C.2       5 UNK         0.5034 
     61 O         -48.3808  -24.5656   12.9447 O.2       5 UNK        -0.5045 
     62 CA        -46.9890  -23.9346   11.0889 C.3       5 UNK         0.0224 
     63 CB        -46.5120  -22.7008   11.8841 C.3       5 UNK        -0.1978 
     64 N         -45.8890  -24.5226   10.3089 N.am      5 UNK        -0.4737 
     65 C         -44.7587  -25.0792   10.7791 C.2       4 UNK         0.5027 
     66 O         -44.4861  -25.1705   11.9759 O.2       4 UNK        -0.5211 
     67 CA        -43.7698  -25.6652    9.7505 C.3       4 UNK         0.0297 
     68 CB        -43.8430  -27.2018    9.7624 C.3       4 UNK        -0.1993 
     69 N         -43.9932  -25.1940    8.3819 N.am      4 UNK        -0.4486 
     70 C         -43.7940  -23.9409    7.9504 C.2       3 UNK         0.4961 
     71 O         -43.2763  -23.0571    8.6337 O.2       3 UNK        -0.5105 
     72 CA        -44.2768  -23.6035    6.5256 C.3       3 UNK         0.0299 
     73 CB        -43.0797  -23.5017    5.5660 C.3       3 UNK        -0.1972 
     74 N         -45.2628  -24.5390    5.9645 N.am      3 UNK        -0.4305 
     75 C         -46.4784  -24.7970    6.4676 C.2       2 UNK         0.5006 
     76 O         -46.9076  -24.3232    7.5240 O.2       2 UNK        -0.5106 
     77 CA        -47.3328  -25.7953    5.6815 C.3       2 UNK         0.0296 
     78 CB        -46.9120  -27.2439    5.9906 C.3       2 UNK        -0.2002 
     79 N         -48.7348  -25.6073    6.0420 N.am      2 UNK        -0.4032 
     80 C         -49.7718  -25.7910    5.2175 C.2       1 UNK         0.5000 
     81 O         -49.6543  -26.1594    4.0440 O.2       1 UNK        -0.5238 
     82 H82       -53.8542  -22.9405    3.3046 H         1 UNK         0.0889 
     83 H83       -53.7886  -24.6578    2.9038 H         1 UNK         0.0889 
     84 H84       -52.6775  -23.5286    2.1263 H         1 UNK         0.0889 
     85 H85       -52.7437  -25.8909    4.4606 H         1 UNK         0.3028 
     86 H86       -51.0852  -24.7041    6.5093 H         1 UNK         0.0864 
     87 H87       -52.6017  -26.4821    7.1515 H         1 UNK         0.0720 
     88 H88       -50.9695  -27.0214    7.4136 H         1 UNK         0.0720 
     89 H89       -53.3631  -30.1393    6.2783 H         1 UNK         0.0814 
     90 H90       -53.8042  -28.7159    7.1879 H         1 UNK         0.0814 
     91 H91       -50.1716  -29.4219    7.2141 H         1 UNK         0.1469 
     92 H92       -50.2424  -31.2164   11.0959 H         1 UNK         0.1381 
     93 H93       -53.9251  -30.3584    9.0834 H         1 UNK         0.1206 
     94 H94       -52.4911  -32.3339   11.7447 H         1 UNK         0.0813 
     95 H95       -53.9670  -31.6264   11.1178 H         1 UNK         0.0813 
     96 H96       -53.8405  -30.5632   14.8983 H         1 UNK         0.0638 
     97 H97       -54.0975  -31.9493   13.8727 H         1 UNK         0.0638 
     98 H98       -55.9348  -30.8711   12.7173 H         1 UNK         0.0568 
     99 H99       -57.0140  -29.0159   15.4640 H         1 UNK         0.3450 
    100 H100      -57.7831  -30.3594   16.2768 H         1 UNK         0.3450 
    101 H101      -54.9362  -28.3683   13.7826 H         1 UNK         0.2987 
    102 H102      -56.2134  -26.5428   11.7563 H         1 UNK         0.0766 
    103 H103      -58.0958  -25.0999   12.5796 H         1 UNK         0.0798 
    104 H104      -58.7001  -26.4444   13.5473 H         1 UNK         0.0798 
    105 H105      -58.6849  -26.5530   11.7930 H         1 UNK         0.0798 
    106 H106      -55.0811  -25.6458   13.4030 H         1 UNK         0.3198 
    107 H107      -54.5481  -24.7177   15.2558 H         1 UNK         0.0843 
    108 H108      -56.2221  -25.2634   17.7571 H         1 UNK         0.0831 
    109 H109      -56.5541  -23.9976   16.5836 H         1 UNK         0.0831 
    110 H110      -55.0705  -23.9465   17.5205 H         1 UNK         0.0831 
    111 H111      -53.7180  -25.9576   17.4589 H         1 UNK         0.3133 
    112 H112      -52.2993  -27.6572   17.8192 H         1 UNK         0.0566 
    113 H113      -50.8012  -29.4755   16.9697 H         1 UNK         0.0814 
    114 H114      -52.4931  -29.8508   16.6905 H         1 UNK         0.0814 
    115 H115      -51.4831  -29.3015   15.3560 H         1 UNK         0.0814 
    116 H116      -50.6787  -26.8873   15.4149 H         1 UNK         0.3091 
    117 H117      -49.4069  -24.0073   17.1590 H         1 UNK         0.0702 
    118 H118      -47.4406  -24.7651   15.8527 H         1 UNK         0.0785 
    119 H119      -48.1923  -26.3318   15.5660 H         1 UNK         0.0785 
    120 H120      -47.7236  -25.8627   17.1957 H         1 UNK         0.0785 
    121 H121      -49.4835  -24.5482   14.3937 H         1 UNK         0.2998 
    122 H122      -52.6144  -22.9628   13.6337 H         1 UNK         0.0697 
    123 H123      -49.6726  -22.2722   13.1272 H         1 UNK         0.0825 
    124 H124      -50.9081  -21.1929   13.7508 H         1 UNK         0.0825 
    125 H125      -51.0261  -21.7941   12.1050 H         1 UNK         0.0825 
    126 H126      -50.4314  -24.6277   12.4653 H         1 UNK         0.3029 
    127 H127      -52.4362  -27.3800   12.1191 H         1 UNK         0.0897 
    128 H128      -53.6371  -26.3133   10.2153 H         1 UNK         0.0792 
    129 H129      -52.3742  -27.3863    9.6420 H         1 UNK         0.0792 
    130 H130      -52.1275  -25.6371    9.6166 H         1 UNK         0.0792 
    131 H131      -50.0968  -26.6697   10.6176 H         1 UNK         0.3086 
    132 H132      -47.7938  -27.4521   13.2377 H         1 UNK         0.0583 
    133 H133      -46.9279  -29.0428   11.8066 H         1 UNK         0.1020 
    134 H134      -48.5885  -29.5337   11.8524 H         1 UNK         0.1020 
    135 H135      -48.1408  -30.4761    8.1985 H         1 UNK         0.0694 
    136 H136      -48.1289  -31.0148    9.8577 H         1 UNK         0.0694 
    137 H137      -47.1339  -26.4485   10.7623 H         1 UNK         0.2989 
    138 H138      -47.7204  -23.5876   10.3572 H         1 UNK         0.1055 
    139 H139      -47.3548  -22.1655   12.3219 H         1 UNK         0.0806 
    140 H140      -45.9817  -21.9967   11.2429 H         1 UNK         0.0806 
    141 H141      -45.8464  -22.9774   12.7023 H         1 UNK         0.0806 
    142 H142      -46.0273  -24.5025    9.3017 H         1 UNK         0.3061 
    143 H143      -42.7652  -25.3636   10.0545 H         1 UNK         0.0734 
    144 H144      -43.0972  -27.6409    9.0996 H         1 UNK         0.0832 
    145 H145      -43.6535  -27.5942   10.7627 H         1 UNK         0.0832 
    146 H146      -44.8243  -27.5641    9.4527 H         1 UNK         0.0832 
    147 H147      -44.4074  -25.8512    7.7379 H         1 UNK         0.3156 
    148 H148      -44.7550  -22.6232    6.5777 H         1 UNK         0.0589 
    149 H149      -42.5739  -24.4609    5.4481 H         1 UNK         0.0808 
    150 H150      -43.3887  -23.1593    4.5781 H         1 UNK         0.0808 
    151 H151      -42.3414  -22.7882    5.9354 H         1 UNK         0.0808 
    152 H152      -44.9974  -24.9952    5.1027 H         1 UNK         0.3098 
    153 H153      -47.1960  -25.5931    4.6168 H         1 UNK         0.0720 
    154 H154      -47.5252  -27.9595    5.4424 H         1 UNK         0.0791 
    155 H155      -47.0061  -27.4719    7.0527 H         1 UNK         0.0791 
    156 H156      -45.8747  -27.4252    5.7068 H         1 UNK         0.0791 
    157 H157      -48.8784  -25.2363    6.9727 H         1 UNK         0.3028 
@<TRIPOS>BOND
     1    1    2 1    
     2    1   82 1    
     3    1   83 1    
     4    1   84 1    
     5    2    3 2    
     6    2    4 am   BACKBONE|DICT|INTERRES
     7    4    5 1    
     8    4   85 1    
     9    5    6 1    
    10    5   80 1    
    11    5   86 1    
    12    6    7 1    
    13    6   87 1    
    14    6   88 1    
    15    7    8 1    
    16    8    9 1    
    17    8   89 1    
    18    8   90 1    
    19    9   10 ar   
    20    9   14 ar   
    21   10   11 ar   
    22   10   91 1    
    23   11   12 ar   
    24   11   58 1    
    25   12   13 ar   
    26   12   92 1    
    27   13   14 ar   
    28   13   15 1    
    29   14   93 1    
    30   15   16 1    
    31   15   94 1    
    32   15   95 1    
    33   16   17 1    
    34   17   18 1    
    35   17   96 1    
    36   17   97 1    
    37   18   19 1    
    38   18   22 1    
    39   18   98 1    
    40   19   20 am   BACKBONE|DICT|INTERRES
    41   19   21 2    
    42   20   99 1    
    43   20  100 1    
    44   22   23 am   BACKBONE|DICT|INTERRES
    45   22  101 1    
    46   23   24 2    
    47   23   25 1    
    48   25   26 1    
    49   25   27 1    
    50   25  102 1    
    51   26  103 1    
    52   26  104 1    
    53   26  105 1    
    54   27   28 am   BACKBONE|DICT|INTERRES
    55   27  106 1    
    56   28   29 2    
    57   28   30 1    
    58   30   31 1    
    59   30   32 1    
    60   30  107 1    
    61   31  108 1    
    62   31  109 1    
    63   31  110 1    
    64   32   33 am   BACKBONE|DICT|INTERRES
    65   32  111 1    
    66   33   34 2    
    67   33   35 1    
    68   35   36 1    
    69   35   37 1    
    70   35  112 1    
    71   36  113 1    
    72   36  114 1    
    73   36  115 1    
    74   37   38 am   BACKBONE|DICT|INTERRES
    75   37  116 1    
    76   38   39 2    
    77   38   40 1    
    78   40   41 1    
    79   40   42 1    
    80   40  117 1    
    81   41  118 1    
    82   41  119 1    
    83   41  120 1    
    84   42   43 am   BACKBONE|DICT|INTERRES
    85   42  121 1    
    86   43   44 2    
    87   43   45 1    
    88   45   46 1    
    89   45   47 1    
    90   45  122 1    
    91   46  123 1    
    92   46  124 1    
    93   46  125 1    
    94   47   48 am   BACKBONE|DICT|INTERRES
    95   47  126 1    
    96   48   49 2    
    97   48   50 1    
    98   50   51 1    
    99   50   52 1    
   100   50  127 1    
   101   51  128 1    
   102   51  129 1    
   103   51  130 1    
   104   52   53 am   BACKBONE|DICT|INTERRES
   105   52  131 1    
   106   53   54 2    
   107   53   55 1    
   108   55   56 1    
   109   55   59 1    
   110   55  132 1    
   111   56   57 1    
   112   56  133 1    
   113   56  134 1    
   114   57   58 1    
   115   58  135 1    
   116   58  136 1    
   117   59   60 am   BACKBONE|DICT|INTERRES
   118   59  137 1    
   119   60   61 2    
   120   60   62 1    
   121   62   63 1    
   122   62   64 1    
   123   62  138 1    
   124   63  139 1    
   125   63  140 1    
   126   63  141 1    
   127   64   65 am   BACKBONE|DICT|INTERRES
   128   64  142 1    
   129   65   66 2    
   130   65   67 1    
   131   67   68 1    
   132   67   69 1    
   133   67  143 1    
   134   68  144 1    
   135   68  145 1    
   136   68  146 1    
   137   69   70 am   BACKBONE|DICT|INTERRES
   138   69  147 1    
   139   70   71 2    
   140   70   72 1    
   141   72   73 1    
   142   72   74 1    
   143   72  148 1    
   144   73  149 1    
   145   73  150 1    
   146   73  151 1    
   147   74   75 am   BACKBONE|DICT|INTERRES
   148   74  152 1    
   149   75   76 2    
   150   75   77 1    
   151   77   78 1    
   152   77   79 1    
   153   77  153 1    
   154   78  154 1    
   155   78  155 1    
   156   78  156 1    
   157   79   80 am   BACKBONE|DICT|INTERRES
   158   79  157 1    
   159   80   81 2    
@<TRIPOS>SUBSTRUCTURE
     1 UNK         1 GROUP             0       ****    0 ROOT    
