@<TRIPOS>MOLECULE
3R207
157   159    1
SMALL
USER_CHARGES


@<TRIPOS>ATOM
      1 CA        -52.0622  -29.8291    7.7522 C.3       0 UNK        -0.1975 
      2 C         -51.6095  -28.7404    6.7924 C.2       0 UNK         0.4852 
      3 O         -51.3101  -29.0246    5.6323 O.2       0 UNK        -0.5216 
      4 N         -51.5596  -27.4913    7.2730 N.am      1 UNK        -0.4461 
      5 CA        -51.2142  -26.2956    6.4900 C.3       1 UNK         0.0864 
      6 C6        -51.5942  -24.9807    7.2204 C.3       14 UNK        -0.0898 
      7 S7        -53.3214  -24.9360    7.8060 S.3       14 UNK        -0.2598 
      8 C8        -53.0900  -24.9072    9.6122 C.3       14 UNK         0.0286 
      9 C9        -52.6604  -26.2642   10.1523 C.ar      14 UNK        -0.0844 
     10 C10       -51.3125  -26.5538   10.3859 C.ar      14 UNK        -0.0881 
     11 C11       -50.9342  -27.7957   10.9063 C.ar      14 UNK        -0.0643 
     12 C12       -51.9170  -28.7493   11.1850 C.ar      14 UNK        -0.0930 
     13 C13       -53.2673  -28.4865   10.9384 C.ar      14 UNK        -0.0827 
     14 C14       -53.6278  -27.2335   10.4256 C.ar      14 UNK        -0.1249 
     15 C15       -54.2874  -29.5807   11.2609 C.3       14 UNK         0.0141 
     16 S16       -55.9329  -29.3668   10.5018 S.3       14 UNK        -0.2313 
     17 C17       -56.7475  -30.9454   10.9156 C.3       14 UNK        -0.0915 
     18 CA        -57.6157  -30.8484   12.2075 C.3       13 UNK         0.0968 
     19 C         -58.6807  -31.9799   12.3678 C.2       13 UNK         0.5732 
     20 N         -59.1847  -32.5557   11.2837 N.am      13 UNK        -0.7310 
     21 O         -59.1103  -32.3036   13.4743 O.2       13 UNK        -0.5035 
     22 N         -56.7936  -30.6513   13.4135 N.am      13 UNK        -0.4233 
     23 C         -55.9997  -31.5668   13.9933 C.2       13 UNK         0.4989 
     24 O         -55.8335  -32.7039   13.5487 O.2       13 UNK        -0.4996 
     25 CA        -55.2362  -31.1643   15.2722 C.3       12 UNK         0.0216 
     26 CB        -53.7177  -31.3339   15.0825 C.3       12 UNK        -0.1964 
     27 N         -55.5140  -29.7918   15.7026 N.am      12 UNK        -0.4276 
     28 C         -56.5666  -29.4253   16.4503 C.2       12 UNK         0.5020 
     29 O         -57.3682  -30.2254   16.9337 O.2       12 UNK        -0.5489 
     30 CA        -56.7901  -27.9166   16.6837 C.3       11 UNK         0.0294 
     31 CB        -56.2589  -27.5039   18.0659 C.3       11 UNK        -0.2019 
     32 N         -56.1816  -27.0604   15.6615 N.am      11 UNK        -0.4493 
     33 C         -56.4853  -27.0760   14.3558 C.2       11 UNK         0.4932 
     34 O         -57.4012  -27.7472   13.8804 O.2       11 UNK        -0.5029 
     35 CA        -55.5813  -26.2613   13.4122 C.3       10 UNK         0.0280 
     36 CB        -56.2539  -24.9363   13.0235 C.3       10 UNK        -0.1976 
     37 N         -54.2323  -25.9856   13.9254 N.am      10 UNK        -0.4242 
     38 C         -53.3271  -26.8927   14.3177 C.2       10 UNK         0.5072 
     39 O         -53.5640  -28.1005   14.3671 O.2       10 UNK        -0.5224 
     40 CA        -51.9513  -26.3602   14.7744 C.3       9 UNK         0.0343 
     41 CB        -50.9621  -27.4988   15.0874 C.3       9 UNK        -0.2003 
     42 N         -51.3182  -25.4464   13.8182 N.am      9 UNK        -0.4272 
     43 C         -51.6860  -24.1832   13.5631 C.2       9 UNK         0.4988 
     44 O         -52.6691  -23.6424   14.0743 O.2       9 UNK        -0.5108 
     45 CA        -50.7926  -23.4073   12.5775 C.3       8 UNK         0.0248 
     46 CB        -51.2845  -21.9691   12.3106 C.3       8 UNK        -0.2001 
     47 N         -49.3822  -23.4199   12.9822 N.am      8 UNK        -0.4140 
     48 C         -48.8406  -22.9387   14.1131 C.2       8 UNK         0.5028 
     49 O         -49.4815  -22.3423   14.9797 O.2       8 UNK        -0.5428 
     50 CA        -47.3285  -23.1788   14.3237 C.3       7 UNK         0.0264 
     51 CB        -46.9783  -23.3615   15.8127 C.3       7 UNK        -0.1988 
     52 N         -46.8378  -24.3452   13.5821 N.am      7 UNK        -0.4454 
     53 C         -46.3858  -24.3310   12.3223 C.2       7 UNK         0.5027 
     54 O         -46.2867  -23.3096   11.6404 O.2       7 UNK        -0.5083 
     55 CA        -46.0956  -25.7084   11.6960 C.3       6 UNK         0.0844 
     56 C56       -47.3547  -26.2763   10.9945 C.3       14 UNK        -0.0967 
     57 S57       -48.6126  -26.8950   12.1629 S.3       14 UNK        -0.2604 
     58 C58       -49.4679  -28.1357   11.1371 C.3       14 UNK         0.0134 
     59 N         -44.9752  -25.6409   10.7592 N.am      6 UNK        -0.4116 
     60 C         -43.6892  -25.4793   11.0944 C.2       5 UNK         0.5034 
     61 O         -43.2940  -25.3716   12.2560 O.2       5 UNK        -0.5045 
     62 CA        -42.6628  -25.4538    9.9514 C.3       5 UNK         0.0224 
     63 CB        -42.2339  -26.8845    9.5843 C.3       5 UNK        -0.1978 
     64 N         -43.1792  -24.7845    8.7534 N.am      5 UNK        -0.4737 
     65 C         -42.5695  -23.7719    8.1203 C.2       4 UNK         0.5027 
     66 O         -41.4880  -23.2977    8.4697 O.2       4 UNK        -0.5211 
     67 CA        -43.2701  -23.1850    6.8782 C.3       4 UNK         0.0297 
     68 CB        -42.6852  -23.7976    5.5954 C.3       4 UNK        -0.1993 
     69 N         -44.7206  -23.3840    6.8865 N.am      4 UNK        -0.4486 
     70 C         -45.5681  -22.7812    7.7306 C.2       3 UNK         0.4961 
     71 O         -45.2327  -21.8776    8.4964 O.2       3 UNK        -0.5105 
     72 CA        -47.0307  -23.2692    7.7430 C.3       3 UNK         0.0299 
     73 CB        -47.9686  -22.1916    7.1746 C.3       3 UNK        -0.1972 
     74 N         -47.2934  -24.5362    7.0462 N.am      3 UNK        -0.4305 
     75 C         -46.7753  -25.7369    7.3377 C.2       2 UNK         0.5006 
     76 O         -45.8672  -25.8992    8.1547 O.2       2 UNK        -0.5106 
     77 CA        -47.3947  -26.9520    6.6165 C.3       2 UNK         0.0296 
     78 CB        -46.8135  -28.2888    7.1145 C.3       2 UNK        -0.2002 
     79 N         -48.8538  -26.9840    6.7683 N.am      2 UNK        -0.4032 
     80 C         -49.7259  -26.2292    6.0831 C.2       1 UNK         0.5000 
     81 O         -49.3792  -25.4433    5.1987 O.2       1 UNK        -0.5238 
     82 H82       -52.2650  -30.7566    7.2173 H         1 UNK         0.0889 
     83 H83       -52.9760  -29.5331    8.2670 H         1 UNK         0.0889 
     84 H84       -51.2912  -30.0265    8.4964 H         1 UNK         0.0889 
     85 H85       -51.8596  -27.3153    8.2243 H         1 UNK         0.3028 
     86 H86       -51.7896  -26.3401    5.5627 H         1 UNK         0.0864 
     87 H87       -51.4648  -24.1309    6.5470 H         1 UNK         0.0720 
     88 H88       -50.9207  -24.7928    8.0577 H         1 UNK         0.0720 
     89 H89       -54.0306  -24.6127   10.0804 H         1 UNK         0.0814 
     90 H90       -52.3707  -24.1319    9.8760 H         1 UNK         0.0814 
     91 H91       -50.5538  -25.8166   10.1659 H         1 UNK         0.1469 
     92 H92       -51.6297  -29.7105   11.5889 H         1 UNK         0.1381 
     93 H93       -54.6643  -26.9947   10.2370 H         1 UNK         0.1206 
     94 H94       -53.8867  -30.5461   10.9485 H         1 UNK         0.0813 
     95 H95       -54.4064  -29.6239   12.3423 H         1 UNK         0.0813 
     96 H96       -57.3596  -31.1872   10.0467 H         1 UNK         0.0638 
     97 H97       -56.0091  -31.7446   10.9921 H         1 UNK         0.0638 
     98 H98       -58.2164  -29.9418   12.1277 H         1 UNK         0.0568 
     99 H99       -59.8892  -33.2683   11.3931 H         1 UNK         0.3450 
    100 H100      -58.8755  -32.2941   10.3614 H         1 UNK         0.3450 
    101 H101      -56.8900  -29.7396   13.8442 H         1 UNK         0.2987 
    102 H102      -55.5506  -31.8515   16.0604 H         1 UNK         0.0766 
    103 H103      -53.4639  -32.3724   14.8665 H         1 UNK         0.0798 
    104 H104      -53.1703  -31.0486   15.9810 H         1 UNK         0.0798 
    105 H105      -53.3406  -30.7310   14.2564 H         1 UNK         0.0798 
    106 H106      -54.8958  -29.0755   15.3244 H         1 UNK         0.3198 
    107 H107      -57.8679  -27.7416   16.6617 H         1 UNK         0.0843 
    108 H108      -55.1789  -27.6379   18.1404 H         1 UNK         0.0831 
    109 H109      -56.7161  -28.1041   18.8539 H         1 UNK         0.0831 
    110 H110      -56.4859  -26.4603   18.2848 H         1 UNK         0.0831 
    111 H111      -55.4133  -26.4761   15.9569 H         1 UNK         0.3133 
    112 H112      -55.4634  -26.8594   12.5085 H         1 UNK         0.0566 
    113 H113      -55.6768  -24.4068   12.2651 H         1 UNK         0.0814 
    114 H114      -57.2484  -25.1090   12.6095 H         1 UNK         0.0814 
    115 H115      -56.3671  -24.2746   13.8831 H         1 UNK         0.0814 
    116 H116      -53.9337  -25.0130   13.9414 H         1 UNK         0.3091 
    117 H117      -52.1221  -25.8085   15.7009 H         1 UNK         0.0702 
    118 H118      -50.0093  -27.1120   15.4494 H         1 UNK         0.0785 
    119 H119      -50.7639  -28.1097   14.2054 H         1 UNK         0.0785 
    120 H120      -51.3557  -28.1607   15.8600 H         1 UNK         0.0785 
    121 H121      -50.5233  -25.8228   13.3190 H         1 UNK         0.2998 
    122 H122      -50.8377  -23.9452   11.6323 H         1 UNK         0.0697 
    123 H123      -51.2924  -21.3668   13.2196 H         1 UNK         0.0825 
    124 H124      -52.3013  -21.9725   11.9160 H         1 UNK         0.0825 
    125 H125      -50.6544  -21.4636   11.5789 H         1 UNK         0.0825 
    126 H126      -48.7514  -23.8850   12.3462 H         1 UNK         0.3029 
    127 H127      -46.8147  -22.2833   13.9671 H         1 UNK         0.0897 
    128 H128      -45.9092  -23.5235   15.9519 H         1 UNK         0.0792 
    129 H129      -47.5072  -24.2091   16.2502 H         1 UNK         0.0792 
    130 H130      -47.2446  -22.4762   16.3918 H         1 UNK         0.0792 
    131 H131      -46.9322  -25.2384   14.0463 H         1 UNK         0.3086 
    132 H132      -45.8019  -26.3970   12.4917 H         1 UNK         0.0583 
    133 H133      -47.8063  -25.5443   10.3219 H         1 UNK         0.1020 
    134 H134      -47.0507  -27.1129   10.3637 H         1 UNK         0.1020 
    135 H135      -48.9846  -28.2463   10.1663 H         1 UNK         0.0694 
    136 H136      -49.3710  -29.1023   11.6337 H         1 UNK         0.0694 
    137 H137      -45.2253  -25.7210    9.7766 H         1 UNK         0.2989 
    138 H138      -41.7869  -24.9243   10.3334 H         1 UNK         0.1055 
    139 H139      -43.0663  -27.4661    9.1856 H         1 UNK         0.0806 
    140 H140      -41.8509  -27.4152   10.4572 H         1 UNK         0.0806 
    141 H141      -41.4413  -26.8786    8.8359 H         1 UNK         0.0806 
    142 H142      -44.0755  -25.1042    8.3999 H         1 UNK         0.3061 
    143 H143      -43.0736  -22.1106    6.8658 H         1 UNK         0.0734 
    144 H144      -43.1191  -23.3444    4.7039 H         1 UNK         0.0832 
    145 H145      -41.6070  -23.6387    5.5449 H         1 UNK         0.0832 
    146 H146      -42.8575  -24.8736    5.5457 H         1 UNK         0.0832 
    147 H147      -45.0878  -24.1073    6.2858 H         1 UNK         0.3156 
    148 H148      -47.2930  -23.4233    8.7918 H         1 UNK         0.0589 
    149 H149      -49.0153  -22.4757    7.2862 H         1 UNK         0.0808 
    150 H150      -47.8371  -21.2418    7.6951 H         1 UNK         0.0808 
    151 H151      -47.7794  -22.0122    6.1156 H         1 UNK         0.0808 
    152 H152      -48.0124  -24.5167    6.3289 H         1 UNK         0.3098 
    153 H153      -47.1511  -26.8565    5.5563 H         1 UNK         0.0720 
    154 H154      -47.2315  -29.1318    6.5640 H         1 UNK         0.0791 
    155 H155      -47.0126  -28.4487    8.1747 H         1 UNK         0.0791 
    156 H156      -45.7316  -28.3207    6.9778 H         1 UNK         0.0791 
    157 H157      -49.2220  -27.5884    7.4874 H         1 UNK         0.3028 
@<TRIPOS>BOND
     1    1    2 1    
     2    1   82 1    
     3    1   83 1    
     4    1   84 1    
     5    2    3 2    
     6    2    4 am   BACKBONE|DICT|INTERRES
     7    4    5 1    
     8    4   85 1    
     9    5    6 1    
    10    5   80 1    
    11    5   86 1    
    12    6    7 1    
    13    6   87 1    
    14    6   88 1    
    15    7    8 1    
    16    8    9 1    
    17    8   89 1    
    18    8   90 1    
    19    9   10 ar   
    20    9   14 ar   
    21   10   11 ar   
    22   10   91 1    
    23   11   12 ar   
    24   11   58 1    
    25   12   13 ar   
    26   12   92 1    
    27   13   14 ar   
    28   13   15 1    
    29   14   93 1    
    30   15   16 1    
    31   15   94 1    
    32   15   95 1    
    33   16   17 1    
    34   17   18 1    
    35   17   96 1    
    36   17   97 1    
    37   18   19 1    
    38   18   22 1    
    39   18   98 1    
    40   19   20 am   BACKBONE|DICT|INTERRES
    41   19   21 2    
    42   20   99 1    
    43   20  100 1    
    44   22   23 am   BACKBONE|DICT|INTERRES
    45   22  101 1    
    46   23   24 2    
    47   23   25 1    
    48   25   26 1    
    49   25   27 1    
    50   25  102 1    
    51   26  103 1    
    52   26  104 1    
    53   26  105 1    
    54   27   28 am   BACKBONE|DICT|INTERRES
    55   27  106 1    
    56   28   29 2    
    57   28   30 1    
    58   30   31 1    
    59   30   32 1    
    60   30  107 1    
    61   31  108 1    
    62   31  109 1    
    63   31  110 1    
    64   32   33 am   BACKBONE|DICT|INTERRES
    65   32  111 1    
    66   33   34 2    
    67   33   35 1    
    68   35   36 1    
    69   35   37 1    
    70   35  112 1    
    71   36  113 1    
    72   36  114 1    
    73   36  115 1    
    74   37   38 am   BACKBONE|DICT|INTERRES
    75   37  116 1    
    76   38   39 2    
    77   38   40 1    
    78   40   41 1    
    79   40   42 1    
    80   40  117 1    
    81   41  118 1    
    82   41  119 1    
    83   41  120 1    
    84   42   43 am   BACKBONE|DICT|INTERRES
    85   42  121 1    
    86   43   44 2    
    87   43   45 1    
    88   45   46 1    
    89   45   47 1    
    90   45  122 1    
    91   46  123 1    
    92   46  124 1    
    93   46  125 1    
    94   47   48 am   BACKBONE|DICT|INTERRES
    95   47  126 1    
    96   48   49 2    
    97   48   50 1    
    98   50   51 1    
    99   50   52 1    
   100   50  127 1    
   101   51  128 1    
   102   51  129 1    
   103   51  130 1    
   104   52   53 am   BACKBONE|DICT|INTERRES
   105   52  131 1    
   106   53   54 2    
   107   53   55 1    
   108   55   56 1    
   109   55   59 1    
   110   55  132 1    
   111   56   57 1    
   112   56  133 1    
   113   56  134 1    
   114   57   58 1    
   115   58  135 1    
   116   58  136 1    
   117   59   60 am   BACKBONE|DICT|INTERRES
   118   59  137 1    
   119   60   61 2    
   120   60   62 1    
   121   62   63 1    
   122   62   64 1    
   123   62  138 1    
   124   63  139 1    
   125   63  140 1    
   126   63  141 1    
   127   64   65 am   BACKBONE|DICT|INTERRES
   128   64  142 1    
   129   65   66 2    
   130   65   67 1    
   131   67   68 1    
   132   67   69 1    
   133   67  143 1    
   134   68  144 1    
   135   68  145 1    
   136   68  146 1    
   137   69   70 am   BACKBONE|DICT|INTERRES
   138   69  147 1    
   139   70   71 2    
   140   70   72 1    
   141   72   73 1    
   142   72   74 1    
   143   72  148 1    
   144   73  149 1    
   145   73  150 1    
   146   73  151 1    
   147   74   75 am   BACKBONE|DICT|INTERRES
   148   74  152 1    
   149   75   76 2    
   150   75   77 1    
   151   77   78 1    
   152   77   79 1    
   153   77  153 1    
   154   78  154 1    
   155   78  155 1    
   156   78  156 1    
   157   79   80 am   BACKBONE|DICT|INTERRES
   158   79  157 1    
   159   80   81 2    
@<TRIPOS>SUBSTRUCTURE
     1 UNK         1 GROUP             0       ****    0 ROOT    
