@<TRIPOS>MOLECULE
3R207
157   159    1
SMALL
USER_CHARGES


@<TRIPOS>ATOM
      1 CA        -48.4800  -30.6160    6.4127 C.3       0 UNK        -0.1975 
      2 C         -49.6549  -29.9636    7.1373 C.2       0 UNK         0.4852 
      3 O         -49.8605  -30.2456    8.3146 O.2       0 UNK        -0.5216 
      4 N         -50.4533  -29.1021    6.4893 N.am      1 UNK        -0.4461 
      5 CA        -50.3781  -28.7148    5.0723 C.3       1 UNK         0.0864 
      6 C6        -51.7110  -28.1140    4.5594 C.3       14 UNK        -0.0898 
      7 S7        -53.1098  -29.2698    4.7730 S.3       14 UNK        -0.2598 
      8 C8        -54.2845  -28.3004    5.7764 C.3       14 UNK         0.0286 
      9 C9        -53.6902  -27.8322    7.0986 C.ar      14 UNK        -0.0844 
     10 C10       -53.5146  -26.4670    7.3429 C.ar      14 UNK        -0.0881 
     11 C11       -52.9737  -26.0263    8.5532 C.ar      14 UNK        -0.0643 
     12 C12       -52.5908  -26.9620    9.5184 C.ar      14 UNK        -0.0930 
     13 C13       -52.7668  -28.3297    9.2890 C.ar      14 UNK        -0.0827 
     14 C14       -53.3273  -28.7581    8.0813 C.ar      14 UNK        -0.1249 
     15 C15       -52.3375  -29.3453   10.3370 C.3       14 UNK         0.0141 
     16 S16       -53.3452  -29.2198   11.8461 S.3       14 UNK        -0.2313 
     17 C17       -52.9509  -30.7968   12.6803 C.3       14 UNK        -0.0915 
     18 CA        -54.2377  -31.5409   13.1450 C.3       13 UNK         0.0968 
     19 C         -53.9601  -32.9906   13.6494 C.2       13 UNK         0.5732 
     20 N         -54.7313  -33.5192   14.5922 N.am      13 UNK        -0.7310 
     21 O         -53.0589  -33.6653   13.1561 O.2       13 UNK        -0.5035 
     22 N         -55.0641  -30.7119   14.0416 N.am      13 UNK        -0.4233 
     23 C         -54.7308  -30.2943   15.2692 C.2       13 UNK         0.4989 
     24 O         -53.7175  -30.6525   15.8717 O.2       13 UNK        -0.4996 
     25 CA        -55.6886  -29.2727   15.9063 C.3       12 UNK         0.0216 
     26 CB        -55.3383  -28.9590   17.3733 C.3       12 UNK        -0.1964 
     27 N         -55.6941  -28.0272   15.1318 N.am      12 UNK        -0.4276 
     28 C         -56.4468  -27.8138   14.0406 C.2       12 UNK         0.5020 
     29 O         -57.2070  -28.6693   13.5818 O.2       12 UNK        -0.5489 
     30 CA        -56.3608  -26.4469   13.3344 C.3       11 UNK         0.0294 
     31 CB        -57.7498  -25.7902   13.2418 C.3       11 UNK        -0.2019 
     32 N         -55.4512  -25.5231   14.0142 N.am      11 UNK        -0.4493 
     33 C         -54.3102  -25.0482   13.5010 C.2       11 UNK         0.4932 
     34 O         -53.9220  -25.2683   12.3540 O.2       11 UNK        -0.5029 
     35 CA        -53.4234  -24.2021   14.4335 C.3       10 UNK         0.0280 
     36 CB        -54.1615  -23.5968   15.6511 C.3       10 UNK        -0.1976 
     37 N         -52.2428  -24.9716   14.8489 N.am      10 UNK        -0.4242 
     38 C         -52.2624  -26.1345   15.5191 C.2       10 UNK         0.5072 
     39 O         -53.2941  -26.6304   15.9762 O.2       10 UNK        -0.5224 
     40 CA        -50.9489  -26.9091   15.7005 C.3       9 UNK         0.0343 
     41 CB        -50.9914  -28.2003   14.8658 C.3       9 UNK        -0.2003 
     42 N         -49.7429  -26.1615   15.3320 N.am      9 UNK        -0.4272 
     43 C         -48.8599  -25.6828   16.2190 C.2       9 UNK         0.4988 
     44 O         -49.0649  -25.6302   17.4326 O.2       9 UNK        -0.5108 
     45 CA        -47.4896  -25.2437   15.6751 C.3       8 UNK         0.0248 
     46 CB        -46.6701  -26.4633   15.2203 C.3       8 UNK        -0.2001 
     47 N         -47.5801  -24.2783   14.5814 N.am      8 UNK        -0.4140 
     48 C         -47.9059  -22.9882   14.7391 C.2       8 UNK         0.5028 
     49 O         -48.1529  -22.4691   15.8286 O.2       8 UNK        -0.5428 
     50 CA        -47.9707  -22.1256   13.4659 C.3       7 UNK         0.0264 
     51 CB        -46.5739  -21.6054   13.0900 C.3       7 UNK        -0.1988 
     52 N         -48.5587  -22.8255   12.3208 N.am      7 UNK        -0.4454 
     53 C         -49.8177  -23.2851   12.2837 C.2       7 UNK         0.5027 
     54 O         -50.6199  -23.1325   13.2026 O.2       7 UNK        -0.5083 
     55 CA        -50.2423  -24.0861   11.0374 C.3       6 UNK         0.0844 
     56 C56       -50.6175  -23.1271    9.8801 C.3       14 UNK        -0.0967 
     57 S57       -51.1399  -23.9879    8.3617 S.3       14 UNK        -0.2604 
     58 C58       -52.8098  -24.5396    8.8186 C.3       14 UNK         0.0134 
     59 N         -49.2375  -25.0894   10.6700 N.am      6 UNK        -0.4116 
     60 C         -48.8484  -26.0983   11.4644 C.2       5 UNK         0.5034 
     61 O         -49.3401  -26.3359   12.5664 O.2       5 UNK        -0.5045 
     62 CA        -47.6625  -26.9455   10.9865 C.3       5 UNK         0.0224 
     63 CB        -48.1236  -28.0528   10.0278 C.3       5 UNK        -0.1978 
     64 N         -46.6356  -26.1171   10.3531 N.am      5 UNK        -0.4737 
     65 C         -45.8352  -25.2778   11.0260 C.2       4 UNK         0.5027 
     66 O         -45.8456  -25.1614   12.2511 O.2       4 UNK        -0.5211 
     67 CA        -44.8968  -24.3899   10.1908 C.3       4 UNK         0.0297 
     68 CB        -43.5987  -25.1412    9.8569 C.3       4 UNK        -0.1993 
     69 N         -45.5205  -23.9116    8.9543 N.am      4 UNK        -0.4486 
     70 C         -46.5703  -23.0792    8.9102 C.2       3 UNK         0.4961 
     71 O         -47.0866  -22.5772    9.9075 O.2       3 UNK        -0.5105 
     72 CA        -47.1788  -22.7916    7.5267 C.3       3 UNK         0.0299 
     73 CB        -46.5062  -21.5653    6.8903 C.3       3 UNK        -0.1972 
     74 N         -47.1258  -23.9229    6.5920 N.am      3 UNK        -0.4305 
     75 C         -47.6630  -25.1303    6.8140 C.2       2 UNK         0.5006 
     76 O         -48.1903  -25.4681    7.8758 O.2       2 UNK        -0.5106 
     77 CA        -47.5478  -26.1507    5.6812 C.3       2 UNK         0.0296 
     78 CB        -46.2214  -26.9265    5.7804 C.3       2 UNK        -0.2002 
     79 N         -48.6719  -27.0763    5.7792 N.am      2 UNK        -0.4032 
     80 C         -49.2015  -27.7651    4.7609 C.2       1 UNK         0.5000 
     81 O         -48.7840  -27.6936    3.6036 O.2       1 UNK        -0.5238 
     82 H82       -47.9976  -31.3485    7.0596 H         1 UNK         0.0889 
     83 H83       -48.8079  -31.1398    5.5158 H         1 UNK         0.0889 
     84 H84       -47.7286  -29.8764    6.1390 H         1 UNK         0.0889 
     85 H85       -51.2395  -28.7124    6.9937 H         1 UNK         0.3028 
     86 H86       -50.2008  -29.6207    4.4902 H         1 UNK         0.0864 
     87 H87       -51.6402  -27.8850    3.4941 H         1 UNK         0.0720 
     88 H88       -51.9234  -27.1659    5.0554 H         1 UNK         0.0720 
     89 H89       -55.1633  -28.9138    5.9796 H         1 UNK         0.0814 
     90 H90       -54.6356  -27.4531    5.1852 H         1 UNK         0.0814 
     91 H91       -53.8001  -25.7428    6.5921 H         1 UNK         0.1469 
     92 H92       -52.1682  -26.6270   10.4559 H         1 UNK         0.1381 
     93 H93       -53.4665  -29.8145    7.8948 H         1 UNK         0.1206 
     94 H94       -51.2884  -29.1866   10.5901 H         1 UNK         0.0813 
     95 H95       -52.4084  -30.3554    9.9306 H         1 UNK         0.0813 
     96 H96       -52.3746  -31.4227   11.9975 H         1 UNK         0.0638 
     97 H97       -52.2929  -30.5929   13.5254 H         1 UNK         0.0638 
     98 H98       -54.8517  -31.6905   12.2565 H         1 UNK         0.0568 
     99 H99       -55.4788  -32.9818   15.0005 H         1 UNK         0.3450 
    100 H100      -54.5540  -34.4605   14.9050 H         1 UNK         0.3450 
    101 H101      -55.9106  -30.3292   13.6353 H         1 UNK         0.2987 
    102 H102      -56.6894  -29.7101   15.8974 H         1 UNK         0.0766 
    103 H103      -55.3779  -29.8620   17.9839 H         1 UNK         0.0798 
    104 H104      -56.0398  -28.2450   17.8049 H         1 UNK         0.0798 
    105 H105      -54.3348  -28.5443   17.4733 H         1 UNK         0.0798 
    106 H106      -54.9831  -27.3462   15.3907 H         1 UNK         0.3198 
    107 H107      -56.0106  -26.6483   12.3195 H         1 UNK         0.0843 
    108 H108      -57.7038  -24.8421   12.7057 H         1 UNK         0.0831 
    109 H109      -58.1729  -25.5984   14.2286 H         1 UNK         0.0831 
    110 H110      -58.4517  -26.4292   12.7042 H         1 UNK         0.0831 
    111 H111      -55.6715  -25.2951   14.9736 H         1 UNK         0.3133 
    112 H112      -53.0686  -23.3662   13.8313 H         1 UNK         0.0566 
    113 H113      -55.0228  -23.0077   15.3330 H         1 UNK         0.0814 
    114 H114      -54.5172  -24.3508   16.3532 H         1 UNK         0.0814 
    115 H115      -53.5047  -22.9248   16.2036 H         1 UNK         0.0814 
    116 H116      -51.3627  -24.6329   14.4763 H         1 UNK         0.3091 
    117 H117      -50.9022  -27.2019   16.7514 H         1 UNK         0.0702 
    118 H118      -51.0992  -27.9907   13.8007 H         1 UNK         0.0785 
    119 H119      -50.0880  -28.7945   15.0023 H         1 UNK         0.0785 
    120 H120      -51.8358  -28.8241   15.1598 H         1 UNK         0.0785 
    121 H121      -49.5058  -26.1605   14.3399 H         1 UNK         0.2998 
    122 H122      -46.9458  -24.7712   16.4961 H         1 UNK         0.0697 
    123 H123      -45.6598  -26.1743   14.9296 H         1 UNK         0.0825 
    124 H124      -46.5792  -27.1957   16.0236 H         1 UNK         0.0825 
    125 H125      -47.1291  -26.9669   14.3690 H         1 UNK         0.0825 
    126 H126      -47.3263  -24.6074   13.6561 H         1 UNK         0.3029 
    127 H127      -48.6061  -21.2650   13.6861 H         1 UNK         0.0897 
    128 H128      -46.6200  -20.9253   12.2392 H         1 UNK         0.0792 
    129 H129      -46.1243  -21.0580   13.9194 H         1 UNK         0.0792 
    130 H130      -45.8967  -22.4196   12.8297 H         1 UNK         0.0792 
    131 H131      -47.9711  -22.9284   11.4949 H         1 UNK         0.3086 
    132 H132      -51.1418  -24.6378   11.3171 H         1 UNK         0.0583 
    133 H133      -51.4182  -22.4511   10.1873 H         1 UNK         0.1020 
    134 H134      -49.7719  -22.4876    9.6227 H         1 UNK         0.1020 
    135 H135      -53.0170  -24.3309    9.8689 H         1 UNK         0.0694 
    136 H136      -53.5416  -23.9662    8.2478 H         1 UNK         0.0694 
    137 H137      -48.8193  -25.0045    9.7489 H         1 UNK         0.2989 
    138 H138      -47.2196  -27.4234   11.8632 H         1 UNK         0.1055 
    139 H139      -48.8016  -28.7410   10.5339 H         1 UNK         0.0806 
    140 H140      -48.6591  -27.6556    9.1660 H         1 UNK         0.0806 
    141 H141      -47.2833  -28.6414    9.6600 H         1 UNK         0.0806 
    142 H142      -46.6391  -26.0853    9.3422 H         1 UNK         0.3061 
    143 H143      -44.6410  -23.5179   10.7967 H         1 UNK         0.0734 
    144 H144      -42.8898  -24.4978    9.3354 H         1 UNK         0.0832 
    145 H145      -43.1075  -25.4906   10.7663 H         1 UNK         0.0832 
    146 H146      -43.7844  -26.0153    9.2313 H         1 UNK         0.0832 
    147 H147      -45.1585  -24.2725    8.0839 H         1 UNK         0.3156 
    148 H148      -48.2334  -22.5554    7.6814 H         1 UNK         0.0589 
    149 H149      -47.0005  -21.2772    5.9623 H         1 UNK         0.0808 
    150 H150      -46.5528  -20.7044    7.5592 H         1 UNK         0.0808 
    151 H151      -45.4541  -21.7492    6.6693 H         1 UNK         0.0808 
    152 H152      -46.6935  -23.7447    5.6965 H         1 UNK         0.3098 
    153 H153      -47.5960  -25.6196    4.7280 H         1 UNK         0.0720 
    154 H154      -45.3652  -26.2536    5.7206 H         1 UNK         0.0791 
    155 H155      -46.1448  -27.4731    6.7216 H         1 UNK         0.0791 
    156 H156      -46.1215  -27.6466    4.9681 H         1 UNK         0.0791 
    157 H157      -49.0948  -27.1291    6.6981 H         1 UNK         0.3028 
@<TRIPOS>BOND
     1    1    2 1    
     2    1   82 1    
     3    1   83 1    
     4    1   84 1    
     5    2    3 2    
     6    2    4 am   BACKBONE|DICT|INTERRES
     7    4    5 1    
     8    4   85 1    
     9    5    6 1    
    10    5   80 1    
    11    5   86 1    
    12    6    7 1    
    13    6   87 1    
    14    6   88 1    
    15    7    8 1    
    16    8    9 1    
    17    8   89 1    
    18    8   90 1    
    19    9   10 ar   
    20    9   14 ar   
    21   10   11 ar   
    22   10   91 1    
    23   11   12 ar   
    24   11   58 1    
    25   12   13 ar   
    26   12   92 1    
    27   13   14 ar   
    28   13   15 1    
    29   14   93 1    
    30   15   16 1    
    31   15   94 1    
    32   15   95 1    
    33   16   17 1    
    34   17   18 1    
    35   17   96 1    
    36   17   97 1    
    37   18   19 1    
    38   18   22 1    
    39   18   98 1    
    40   19   20 am   BACKBONE|DICT|INTERRES
    41   19   21 2    
    42   20   99 1    
    43   20  100 1    
    44   22   23 am   BACKBONE|DICT|INTERRES
    45   22  101 1    
    46   23   24 2    
    47   23   25 1    
    48   25   26 1    
    49   25   27 1    
    50   25  102 1    
    51   26  103 1    
    52   26  104 1    
    53   26  105 1    
    54   27   28 am   BACKBONE|DICT|INTERRES
    55   27  106 1    
    56   28   29 2    
    57   28   30 1    
    58   30   31 1    
    59   30   32 1    
    60   30  107 1    
    61   31  108 1    
    62   31  109 1    
    63   31  110 1    
    64   32   33 am   BACKBONE|DICT|INTERRES
    65   32  111 1    
    66   33   34 2    
    67   33   35 1    
    68   35   36 1    
    69   35   37 1    
    70   35  112 1    
    71   36  113 1    
    72   36  114 1    
    73   36  115 1    
    74   37   38 am   BACKBONE|DICT|INTERRES
    75   37  116 1    
    76   38   39 2    
    77   38   40 1    
    78   40   41 1    
    79   40   42 1    
    80   40  117 1    
    81   41  118 1    
    82   41  119 1    
    83   41  120 1    
    84   42   43 am   BACKBONE|DICT|INTERRES
    85   42  121 1    
    86   43   44 2    
    87   43   45 1    
    88   45   46 1    
    89   45   47 1    
    90   45  122 1    
    91   46  123 1    
    92   46  124 1    
    93   46  125 1    
    94   47   48 am   BACKBONE|DICT|INTERRES
    95   47  126 1    
    96   48   49 2    
    97   48   50 1    
    98   50   51 1    
    99   50   52 1    
   100   50  127 1    
   101   51  128 1    
   102   51  129 1    
   103   51  130 1    
   104   52   53 am   BACKBONE|DICT|INTERRES
   105   52  131 1    
   106   53   54 2    
   107   53   55 1    
   108   55   56 1    
   109   55   59 1    
   110   55  132 1    
   111   56   57 1    
   112   56  133 1    
   113   56  134 1    
   114   57   58 1    
   115   58  135 1    
   116   58  136 1    
   117   59   60 am   BACKBONE|DICT|INTERRES
   118   59  137 1    
   119   60   61 2    
   120   60   62 1    
   121   62   63 1    
   122   62   64 1    
   123   62  138 1    
   124   63  139 1    
   125   63  140 1    
   126   63  141 1    
   127   64   65 am   BACKBONE|DICT|INTERRES
   128   64  142 1    
   129   65   66 2    
   130   65   67 1    
   131   67   68 1    
   132   67   69 1    
   133   67  143 1    
   134   68  144 1    
   135   68  145 1    
   136   68  146 1    
   137   69   70 am   BACKBONE|DICT|INTERRES
   138   69  147 1    
   139   70   71 2    
   140   70   72 1    
   141   72   73 1    
   142   72   74 1    
   143   72  148 1    
   144   73  149 1    
   145   73  150 1    
   146   73  151 1    
   147   74   75 am   BACKBONE|DICT|INTERRES
   148   74  152 1    
   149   75   76 2    
   150   75   77 1    
   151   77   78 1    
   152   77   79 1    
   153   77  153 1    
   154   78  154 1    
   155   78  155 1    
   156   78  156 1    
   157   79   80 am   BACKBONE|DICT|INTERRES
   158   79  157 1    
   159   80   81 2    
@<TRIPOS>SUBSTRUCTURE
     1 UNK         1 GROUP             0       ****    0 ROOT    
