@<TRIPOS>MOLECULE
3R207
157   159    1
SMALL
USER_CHARGES


@<TRIPOS>ATOM
      1 CA        -45.4976  -29.6169    9.3347 C.3       0 UNK        -0.1975 
      2 C         -46.4504  -29.4889    8.1552 C.2       0 UNK         0.4852 
      3 O         -46.0146  -29.1808    7.0454 O.2       0 UNK        -0.5216 
      4 N         -47.7453  -29.7283    8.3872 N.am      1 UNK        -0.4461 
      5 CA        -48.8243  -29.5344    7.4168 C.3       1 UNK         0.0864 
      6 C6        -50.0555  -30.4228    7.7435 C.3       14 UNK        -0.0898 
      7 S7        -50.6156  -30.3393    9.4818 S.3       14 UNK        -0.2598 
      8 C8        -52.4256  -30.1827    9.2966 C.3       14 UNK         0.0286 
      9 C9        -52.9385  -28.8015    8.8896 C.ar      14 UNK        -0.0844 
     10 C10       -52.2232  -27.6273    9.1533 C.ar      14 UNK        -0.0881 
     11 C11       -52.7509  -26.3756    8.8282 C.ar      14 UNK        -0.0643 
     12 C12       -54.0158  -26.2943    8.2448 C.ar      14 UNK        -0.0930 
     13 C13       -54.7580  -27.4532    8.0081 C.ar      14 UNK        -0.0827 
     14 C14       -54.2069  -28.7020    8.3106 C.ar      14 UNK        -0.1249 
     15 C15       -56.1841  -27.3449    7.4959 C.3       14 UNK         0.0141 
     16 S16       -57.3092  -26.8107    8.8274 S.3       14 UNK        -0.2313 
     17 C17       -57.2239  -28.2261    9.9788 C.3       14 UNK        -0.0915 
     18 CA        -56.2341  -28.0216   11.1741 C.3       13 UNK         0.0968 
     19 C         -56.8277  -27.2067   12.3621 C.2       13 UNK         0.5732 
     20 N         -57.5850  -26.1543   12.0846 N.am      13 UNK        -0.7310 
     21 O         -56.5853  -27.4885   13.5342 O.2       13 UNK        -0.5035 
     22 N         -55.6022  -29.2818   11.5984 N.am      13 UNK        -0.4233 
     23 C         -56.2519  -30.3895   11.9867 C.2       13 UNK         0.4989 
     24 O         -57.4791  -30.4904   12.0264 O.2       13 UNK        -0.4996 
     25 CA        -55.4069  -31.6203   12.3643 C.3       12 UNK         0.0216 
     26 CB        -55.2777  -32.5678   11.1595 C.3       12 UNK        -0.1964 
     27 N         -54.0710  -31.2904   12.8618 N.am      12 UNK        -0.4276 
     28 C         -53.8158  -30.7686   14.0677 C.2       12 UNK         0.5020 
     29 O         -54.6806  -30.5497   14.9173 O.2       12 UNK        -0.5489 
     30 CA        -52.3482  -30.4330   14.3930 C.3       11 UNK         0.0294 
     31 CB        -51.3170  -31.0514   13.4202 C.3       11 UNK        -0.2019 
     32 N         -52.1454  -28.9864   14.4983 N.am      11 UNK        -0.4493 
     33 C         -52.3855  -28.0576   13.5618 C.2       11 UNK         0.4932 
     34 O         -52.8375  -28.3187   12.4458 O.2       11 UNK        -0.5029 
     35 CA        -52.0332  -26.5935   13.8949 C.3       10 UNK         0.0280 
     36 CB        -53.3052  -25.7360   14.0472 C.3       10 UNK        -0.1976 
     37 N         -51.1015  -26.3983   15.0253 N.am      10 UNK        -0.4242 
     38 C         -51.3232  -26.6207   16.3303 C.2       10 UNK         0.5072 
     39 O         -52.3955  -27.0356   16.7696 O.2       10 UNK        -0.5224 
     40 CA        -50.1608  -26.4338   17.3247 C.3       9 UNK         0.0343 
     41 CB        -49.7454  -27.7948   17.9114 C.3       9 UNK        -0.2003 
     42 N         -48.9638  -25.7846   16.7839 N.am      9 UNK        -0.4272 
     43 C         -48.7892  -24.4621   16.6604 C.2       9 UNK         0.4988 
     44 O         -49.6801  -23.6365   16.8644 O.2       9 UNK        -0.5108 
     45 CA        -47.3814  -23.9665   16.2799 C.3       8 UNK         0.0248 
     46 CB        -46.3118  -25.0769   16.1993 C.3       8 UNK        -0.2001 
     47 N         -47.4568  -23.2901   14.9914 N.am      8 UNK        -0.4140 
     48 C         -47.0579  -22.0386   14.7237 C.2       8 UNK         0.5028 
     49 O         -46.5245  -21.2984   15.5517 O.2       8 UNK        -0.5428 
     50 CA        -47.2788  -21.5129   13.2876 C.3       7 UNK         0.0264 
     51 CB        -45.9419  -21.4066   12.5363 C.3       7 UNK        -0.1988 
     52 N         -48.1970  -22.3477   12.5086 N.am      7 UNK        -0.4454 
     53 C         -49.5191  -22.4153   12.7218 C.2       7 UNK         0.5027 
     54 O         -50.1236  -21.6354   13.4585 O.2       7 UNK        -0.5083 
     55 CA        -50.2937  -23.5827   12.0771 C.3       6 UNK         0.0844 
     56 C56       -51.2868  -23.0970   10.9962 C.3       14 UNK        -0.0967 
     57 S57       -52.5606  -24.3621   10.6835 S.3       14 UNK        -0.2604 
     58 C58       -51.9714  -25.1108    9.1408 C.3       14 UNK         0.0134 
     59 N         -49.4167  -24.6549   11.5864 N.am      6 UNK        -0.4116 
     60 C         -48.7542  -25.5233   12.3619 C.2       5 UNK         0.5034 
     61 O         -48.8070  -25.5133   13.5907 O.2       5 UNK        -0.5045 
     62 CA        -47.8645  -26.5607   11.6636 C.3       5 UNK         0.0224 
     63 CB        -48.6097  -27.8932   11.5112 C.3       5 UNK        -0.1978 
     64 N         -47.3702  -26.0924   10.3627 N.am      5 UNK        -0.4737 
     65 C         -46.3703  -25.2040   10.2571 C.2       4 UNK         0.5027 
     66 O         -45.7709  -24.7438   11.2285 O.2       4 UNK        -0.5211 
     67 CA        -45.9875  -24.7155    8.8527 C.3       4 UNK         0.0297 
     68 CB        -45.1606  -25.7726    8.1077 C.3       4 UNK        -0.1993 
     69 N         -47.1244  -24.3145    8.0246 N.am      4 UNK        -0.4486 
     70 C         -48.0051  -23.3461    8.3011 C.2       3 UNK         0.4961 
     71 O         -48.0331  -22.7274    9.3643 O.2       3 UNK        -0.5105 
     72 CA        -49.0398  -23.0076    7.2106 C.3       3 UNK         0.0299 
     73 CB        -48.4030  -22.1843    6.0742 C.3       3 UNK        -0.1972 
     74 N         -49.7741  -24.1707    6.6942 N.am      3 UNK        -0.4305 
     75 C         -49.3083  -25.2329    6.0231 C.2       2 UNK         0.5006 
     76 O         -48.1490  -25.3531    5.6193 O.2       2 UNK        -0.5106 
     77 CA        -50.3169  -26.3694    5.7926 C.3       2 UNK         0.0296 
     78 CB        -50.7985  -26.3753    4.3331 C.3       2 UNK        -0.2002 
     79 N         -49.7837  -27.6916    6.1338 N.am      2 UNK        -0.4032 
     80 C         -49.2006  -28.0431    7.2914 C.2       1 UNK         0.5000 
     81 O         -48.9899  -27.2678    8.2323 O.2       1 UNK        -0.5238 
     82 H82       -45.1378  -28.6327    9.6331 H         1 UNK         0.0889 
     83 H83       -44.6376  -30.2272    9.0601 H         1 UNK         0.0889 
     84 H84       -45.9775  -30.0798   10.1967 H         1 UNK         0.0889 
     85 H85       -48.0595  -29.9611    9.3181 H         1 UNK         0.3028 
     86 H86       -48.4498  -29.8494    6.4400 H         1 UNK         0.0864 
     87 H87       -49.8041  -31.4648    7.5402 H         1 UNK         0.0720 
     88 H88       -50.8880  -30.1925    7.0758 H         1 UNK         0.0720 
     89 H89       -52.8793  -30.4281   10.2558 H         1 UNK         0.0814 
     90 H90       -52.7724  -30.9379    8.5895 H         1 UNK         0.0814 
     91 H91       -51.2606  -27.6776    9.6342 H         1 UNK         0.1469 
     92 H92       -54.4442  -25.3263    8.0236 H         1 UNK         0.1381 
     93 H93       -54.7883  -29.5977    8.1396 H         1 UNK         0.1206 
     94 H94       -56.2265  -26.6216    6.6803 H         1 UNK         0.0813 
     95 H95       -56.5264  -28.2950    7.0829 H         1 UNK         0.0813 
     96 H96       -58.2309  -28.4380   10.3424 H         1 UNK         0.0638 
     97 H97       -56.9414  -29.1051    9.3980 H         1 UNK         0.0638 
     98 H98       -55.3936  -27.4225   10.8227 H         1 UNK         0.0568 
     99 H99       -57.7788  -25.9094   11.1249 H         1 UNK         0.3450 
    100 H100      -57.9675  -25.6055   12.8379 H         1 UNK         0.3450 
    101 H101      -54.5939  -29.2395   11.6955 H         1 UNK         0.2987 
    102 H102      -55.9408  -32.1514   13.1556 H         1 UNK         0.0766 
    103 H103      -54.7357  -33.4763   11.4231 H         1 UNK         0.0798 
    104 H104      -54.7601  -32.0958   10.3239 H         1 UNK         0.0798 
    105 H105      -56.2610  -32.8736   10.7991 H         1 UNK         0.0798 
    106 H106      -53.2944  -31.4355   12.2342 H         1 UNK         0.3198 
    107 H107      -52.1547  -30.8475   15.3836 H         1 UNK         0.0843 
    108 H108      -51.4343  -32.1338   13.3518 H         1 UNK         0.0831 
    109 H109      -50.3000  -30.8655   13.7655 H         1 UNK         0.0831 
    110 H110      -51.3944  -30.6402   12.4138 H         1 UNK         0.0831 
    111 H111      -51.8957  -28.6423   15.4165 H         1 UNK         0.3133 
    112 H112      -51.5067  -26.2285   13.0147 H         1 UNK         0.0566 
    113 H113      -53.0609  -24.6865   14.2100 H         1 UNK         0.0814 
    114 H114      -53.9158  -25.7897   13.1447 H         1 UNK         0.0814 
    115 H115      -53.9310  -26.0723   14.8740 H         1 UNK         0.0814 
    116 H116      -50.1712  -26.0880   14.7524 H         1 UNK         0.3091 
    117 H117      -50.5433  -25.8198   18.1431 H         1 UNK         0.0702 
    118 H118      -49.3534  -28.4634   17.1438 H         1 UNK         0.0785 
    119 H119      -50.5927  -28.2979   18.3799 H         1 UNK         0.0785 
    120 H120      -48.9801  -27.6790   18.6793 H         1 UNK         0.0785 
    121 H121      -48.1865  -26.3885   16.5593 H         1 UNK         0.2998 
    122 H122      -47.0822  -23.2640   17.0604 H         1 UNK         0.0697 
    123 H123      -45.3319  -24.6533   15.9781 H         1 UNK         0.0825 
    124 H124      -46.2177  -25.6098   17.1465 H         1 UNK         0.0825 
    125 H125      -46.5335  -25.8057   15.4182 H         1 UNK         0.0825 
    126 H126      -47.9215  -23.8213   14.2638 H         1 UNK         0.3029 
    127 H127      -47.7071  -20.5114   13.3679 H         1 UNK         0.0897 
    128 H128      -46.0827  -21.0242   11.5249 H         1 UNK         0.0792 
    129 H129      -45.2599  -20.7266   13.0486 H         1 UNK         0.0792 
    130 H130      -45.4425  -22.3732   12.4633 H         1 UNK         0.0792 
    131 H131      -47.7803  -22.9767   11.8340 H         1 UNK         0.3086 
    132 H132      -50.8840  -23.9963   12.8969 H         1 UNK         0.0583 
    133 H133      -51.8113  -22.1979   11.3264 H         1 UNK         0.1020 
    134 H134      -50.7721  -22.8235   10.0739 H         1 UNK         0.1020 
    135 H135      -52.0917  -24.3906    8.3315 H         1 UNK         0.0694 
    136 H136      -50.9067  -25.3350    9.2178 H         1 UNK         0.0694 
    137 H137      -49.2757  -24.7055   10.5889 H         1 UNK         0.2989 
    138 H138      -47.0086  -26.7383   12.3193 H         1 UNK         0.1055 
    139 H139      -47.9568  -28.6680   11.1133 H         1 UNK         0.0806 
    140 H140      -48.9830  -28.2485   12.4730 H         1 UNK         0.0806 
    141 H141      -49.4659  -27.8000   10.8480 H         1 UNK         0.0806 
    142 H142      -47.8405  -26.4387    9.5271 H         1 UNK         0.3061 
    143 H143      -45.3599  -23.8313    8.9824 H         1 UNK         0.0734 
    144 H144      -44.7319  -25.3660    7.1917 H         1 UNK         0.0832 
    145 H145      -44.3335  -26.1339    8.7204 H         1 UNK         0.0832 
    146 H146      -45.7708  -26.6323    7.8344 H         1 UNK         0.0832 
    147 H147      -47.2377  -24.7906    7.1316 H         1 UNK         0.3156 
    148 H148      -49.7924  -22.3741    7.6827 H         1 UNK         0.0589 
    149 H149      -47.6262  -22.7392    5.5476 H         1 UNK         0.0808 
    150 H150      -49.1494  -21.8776    5.3416 H         1 UNK         0.0808 
    151 H151      -47.9413  -21.2766    6.4653 H         1 UNK         0.0808 
    152 H152      -50.7533  -24.1830    6.9379 H         1 UNK         0.3098 
    153 H153      -51.1842  -26.2073    6.4339 H         1 UNK         0.0720 
    154 H154      -49.9813  -26.5825    3.6407 H         1 UNK         0.0791 
    155 H155      -51.2222  -25.4087    4.0568 H         1 UNK         0.0791 
    156 H156      -51.5748  -27.1239    4.1728 H         1 UNK         0.0791 
    157 H157      -49.8895  -28.3993    5.4223 H         1 UNK         0.3028 
@<TRIPOS>BOND
     1    1    2 1    
     2    1   82 1    
     3    1   83 1    
     4    1   84 1    
     5    2    3 2    
     6    2    4 am   BACKBONE|DICT|INTERRES
     7    4    5 1    
     8    4   85 1    
     9    5    6 1    
    10    5   80 1    
    11    5   86 1    
    12    6    7 1    
    13    6   87 1    
    14    6   88 1    
    15    7    8 1    
    16    8    9 1    
    17    8   89 1    
    18    8   90 1    
    19    9   10 ar   
    20    9   14 ar   
    21   10   11 ar   
    22   10   91 1    
    23   11   12 ar   
    24   11   58 1    
    25   12   13 ar   
    26   12   92 1    
    27   13   14 ar   
    28   13   15 1    
    29   14   93 1    
    30   15   16 1    
    31   15   94 1    
    32   15   95 1    
    33   16   17 1    
    34   17   18 1    
    35   17   96 1    
    36   17   97 1    
    37   18   19 1    
    38   18   22 1    
    39   18   98 1    
    40   19   20 am   BACKBONE|DICT|INTERRES
    41   19   21 2    
    42   20   99 1    
    43   20  100 1    
    44   22   23 am   BACKBONE|DICT|INTERRES
    45   22  101 1    
    46   23   24 2    
    47   23   25 1    
    48   25   26 1    
    49   25   27 1    
    50   25  102 1    
    51   26  103 1    
    52   26  104 1    
    53   26  105 1    
    54   27   28 am   BACKBONE|DICT|INTERRES
    55   27  106 1    
    56   28   29 2    
    57   28   30 1    
    58   30   31 1    
    59   30   32 1    
    60   30  107 1    
    61   31  108 1    
    62   31  109 1    
    63   31  110 1    
    64   32   33 am   BACKBONE|DICT|INTERRES
    65   32  111 1    
    66   33   34 2    
    67   33   35 1    
    68   35   36 1    
    69   35   37 1    
    70   35  112 1    
    71   36  113 1    
    72   36  114 1    
    73   36  115 1    
    74   37   38 am   BACKBONE|DICT|INTERRES
    75   37  116 1    
    76   38   39 2    
    77   38   40 1    
    78   40   41 1    
    79   40   42 1    
    80   40  117 1    
    81   41  118 1    
    82   41  119 1    
    83   41  120 1    
    84   42   43 am   BACKBONE|DICT|INTERRES
    85   42  121 1    
    86   43   44 2    
    87   43   45 1    
    88   45   46 1    
    89   45   47 1    
    90   45  122 1    
    91   46  123 1    
    92   46  124 1    
    93   46  125 1    
    94   47   48 am   BACKBONE|DICT|INTERRES
    95   47  126 1    
    96   48   49 2    
    97   48   50 1    
    98   50   51 1    
    99   50   52 1    
   100   50  127 1    
   101   51  128 1    
   102   51  129 1    
   103   51  130 1    
   104   52   53 am   BACKBONE|DICT|INTERRES
   105   52  131 1    
   106   53   54 2    
   107   53   55 1    
   108   55   56 1    
   109   55   59 1    
   110   55  132 1    
   111   56   57 1    
   112   56  133 1    
   113   56  134 1    
   114   57   58 1    
   115   58  135 1    
   116   58  136 1    
   117   59   60 am   BACKBONE|DICT|INTERRES
   118   59  137 1    
   119   60   61 2    
   120   60   62 1    
   121   62   63 1    
   122   62   64 1    
   123   62  138 1    
   124   63  139 1    
   125   63  140 1    
   126   63  141 1    
   127   64   65 am   BACKBONE|DICT|INTERRES
   128   64  142 1    
   129   65   66 2    
   130   65   67 1    
   131   67   68 1    
   132   67   69 1    
   133   67  143 1    
   134   68  144 1    
   135   68  145 1    
   136   68  146 1    
   137   69   70 am   BACKBONE|DICT|INTERRES
   138   69  147 1    
   139   70   71 2    
   140   70   72 1    
   141   72   73 1    
   142   72   74 1    
   143   72  148 1    
   144   73  149 1    
   145   73  150 1    
   146   73  151 1    
   147   74   75 am   BACKBONE|DICT|INTERRES
   148   74  152 1    
   149   75   76 2    
   150   75   77 1    
   151   77   78 1    
   152   77   79 1    
   153   77  153 1    
   154   78  154 1    
   155   78  155 1    
   156   78  156 1    
   157   79   80 am   BACKBONE|DICT|INTERRES
   158   79  157 1    
   159   80   81 2    
@<TRIPOS>SUBSTRUCTURE
     1 UNK         1 GROUP             0       ****    0 ROOT    
