@<TRIPOS>MOLECULE
3R207
157   159    1
SMALL
USER_CHARGES


@<TRIPOS>ATOM
      1 CA        -50.4093  -28.9816    9.8826 C.3       0 UNK        -0.1975 
      2 C         -49.6973  -28.8505    8.5468 C.2       0 UNK         0.4852 
      3 O         -48.5091  -29.1608    8.4523 O.2       0 UNK        -0.5216 
      4 N         -50.4197  -28.4053    7.5104 N.am      1 UNK        -0.4461 
      5 CA        -49.9328  -28.2395    6.1369 C.3       1 UNK         0.0864 
      6 C6        -51.0488  -27.7716    5.1704 C.3       14 UNK        -0.0898 
      7 S7        -52.3332  -29.0457    4.9240 S.3       14 UNK        -0.2598 
      8 C8        -53.8324  -28.2319    5.5613 C.3       14 UNK         0.0286 
      9 C9        -53.8747  -28.2428    7.0812 C.ar      14 UNK        -0.0844 
     10 C10       -53.4264  -27.1371    7.8074 C.ar      14 UNK        -0.0881 
     11 C11       -53.4351  -27.1523    9.2068 C.ar      14 UNK        -0.0643 
     12 C12       -53.9502  -28.2683    9.8751 C.ar      14 UNK        -0.0930 
     13 C13       -54.4255  -29.3704    9.1583 C.ar      14 UNK        -0.0827 
     14 C14       -54.3738  -29.3569    7.7618 C.ar      14 UNK        -0.1249 
     15 C15       -55.0059  -30.5693    9.8913 C.3       14 UNK         0.0141 
     16 S16       -56.7947  -30.3605   10.1379 S.3       14 UNK        -0.2313 
     17 C17       -57.2185  -31.8725   11.0624 C.3       14 UNK        -0.0915 
     18 CA        -57.5099  -31.5996   12.5642 C.3       13 UNK         0.0968 
     19 C         -58.2633  -32.7926   13.2059 C.2       13 UNK         0.5732 
     20 N         -59.5769  -32.8578   13.0395 N.am      13 UNK        -0.7310 
     21 O         -57.6689  -33.6721   13.8291 O.2       13 UNK        -0.5035 
     22 N         -56.2834  -31.3302   13.3241 N.am      13 UNK        -0.4233 
     23 C         -55.8279  -30.1294   13.6910 C.2       13 UNK         0.4989 
     24 O         -56.3506  -29.0607   13.3671 O.2       13 UNK        -0.4996 
     25 CA        -54.5494  -30.1453   14.5486 C.3       12 UNK         0.0216 
     26 CB        -53.3291  -30.5425   13.6983 C.3       12 UNK        -0.1964 
     27 N         -54.2959  -28.8506   15.1890 N.am      12 UNK        -0.4276 
     28 C         -54.9624  -28.3951   16.2621 C.2       12 UNK         0.5020 
     29 O         -55.8239  -29.0534   16.8487 O.2       12 UNK        -0.5489 
     30 CA        -54.6117  -26.9946   16.8102 C.3       11 UNK         0.0294 
     31 CB        -53.8408  -27.1156   18.1355 C.3       11 UNK        -0.2019 
     32 N         -53.8279  -26.1713   15.8889 N.am      11 UNK        -0.4493 
     33 C         -54.3069  -25.5901   14.7788 C.2       11 UNK         0.4932 
     34 O         -55.4992  -25.5807   14.4746 O.2       11 UNK        -0.5029 
     35 CA        -53.2857  -24.9240   13.8323 C.3       10 UNK         0.0280 
     36 CB        -53.3016  -23.3982   14.0167 C.3       10 UNK        -0.1976 
     37 N         -51.9107  -25.4141   13.9954 N.am      10 UNK        -0.4242 
     38 C         -51.5201  -26.6920   13.8722 C.2       10 UNK         0.5072 
     39 O         -52.2611  -27.5781   13.4530 O.2       10 UNK        -0.5224 
     40 CA        -50.1081  -27.0765   14.3564 C.3       9 UNK         0.0343 
     41 CB        -49.2321  -27.5425   13.1843 C.3       9 UNK        -0.2003 
     42 N         -49.3999  -26.0288   15.0957 N.am      9 UNK        -0.4272 
     43 C         -49.7679  -25.4655   16.2540 C.2       9 UNK         0.4988 
     44 O         -50.7902  -25.7815   16.8644 O.2       9 UNK        -0.5108 
     45 CA        -48.8905  -24.3148   16.7907 C.3       8 UNK         0.0248 
     46 CB        -47.7977  -24.8463   17.7383 C.3       8 UNK        -0.2001 
     47 N         -48.3319  -23.4366   15.7444 N.am      8 UNK        -0.4140 
     48 C         -47.4321  -23.7365   14.7956 C.2       8 UNK         0.5028 
     49 O         -46.8723  -24.8305   14.6984 O.2       8 UNK        -0.5428 
     50 CA        -47.1964  -22.6812   13.7048 C.3       7 UNK         0.0264 
     51 CB        -45.6977  -22.3938   13.5254 C.3       7 UNK        -0.1988 
     52 N         -47.7569  -23.1625   12.4400 N.am      7 UNK        -0.4454 
     53 C         -49.0695  -23.2780   12.1916 C.2       7 UNK         0.5027 
     54 O         -49.9407  -22.8935   12.9749 O.2       7 UNK        -0.5083 
     55 CA        -49.4643  -23.9705   10.8700 C.3       6 UNK         0.0844 
     56 C56       -50.9970  -24.0187   10.6312 C.3       14 UNK        -0.0967 
     57 S57       -51.4288  -25.1897    9.3042 S.3       14 UNK        -0.2604 
     58 C58       -52.9144  -25.9714   10.0175 C.3       14 UNK         0.0134 
     59 N         -48.7124  -23.4411    9.7295 N.am      6 UNK        -0.4116 
     60 C         -48.7999  -22.2150    9.1955 C.2       5 UNK         0.5034 
     61 O         -49.5558  -21.3320    9.6049 O.2       5 UNK        -0.5045 
     62 CA        -47.8803  -21.9471    7.9855 C.3       5 UNK         0.0224 
     63 CB        -47.7771  -20.4503    7.6191 C.3       5 UNK        -0.1978 
     64 N         -46.5478  -22.5484    8.1438 N.am      5 UNK        -0.4737 
     65 C         -45.6444  -22.2676    9.0958 C.2       4 UNK         0.5027 
     66 O         -45.7845  -21.3853    9.9433 O.2       4 UNK        -0.5211 
     67 CA        -44.3906  -23.1641    9.1096 C.3       4 UNK         0.0297 
     68 CB        -43.4841  -22.9179   10.3324 C.3       4 UNK        -0.1993 
     69 N         -44.7047  -24.5949    8.9927 N.am      4 UNK        -0.4486 
     70 C         -45.5309  -25.3290    9.7514 C.2       3 UNK         0.4961 
     71 O         -46.2150  -24.8626   10.6641 O.2       3 UNK        -0.5105 
     72 CA        -45.6175  -26.8351    9.4152 C.3       3 UNK         0.0299 
     73 CB        -46.4536  -27.6074   10.4536 C.3       3 UNK        -0.1972 
     74 N         -46.1493  -27.1157    8.0732 N.am      3 UNK        -0.4305 
     75 C         -45.5469  -26.8327    6.9065 C.2       2 UNK         0.5006 
     76 O         -44.4360  -26.3029    6.8366 O.2       2 UNK        -0.5106 
     77 CA        -46.2632  -27.1941    5.5890 C.3       2 UNK         0.0296 
     78 CB        -45.3584  -28.0609    4.6944 C.3       2 UNK        -0.2002 
     79 N         -47.5458  -27.8796    5.7544 N.am      2 UNK        -0.4032 
     80 C         -48.7107  -27.2982    6.0690 C.2       1 UNK         0.5000 
     81 O         -48.8396  -26.0950    6.3061 O.2       1 UNK        -0.5238 
     82 H82       -49.8273  -29.5989   10.5661 H         1 UNK         0.0889 
     83 H83       -51.3833  -29.4525    9.7567 H         1 UNK         0.0889 
     84 H84       -50.5504  -28.0019   10.3376 H         1 UNK         0.0889 
     85 H85       -51.3915  -28.1654    7.6553 H         1 UNK         0.3028 
     86 H86       -49.6085  -29.2281    5.8043 H         1 UNK         0.0864 
     87 H87       -50.6320  -27.5527    4.1852 H         1 UNK         0.0720 
     88 H88       -51.4960  -26.8391    5.5183 H         1 UNK         0.0720 
     89 H89       -54.7065  -28.7553    5.1707 H         1 UNK         0.0814 
     90 H90       -53.8962  -27.2131    5.1759 H         1 UNK         0.0814 
     91 H91       -53.0566  -26.2675    7.2816 H         1 UNK         0.1469 
     92 H92       -53.9860  -28.2789   10.9568 H         1 UNK         0.1381 
     93 H93       -54.7340  -30.2100    7.2027 H         1 UNK         0.1206 
     94 H94       -54.8194  -31.4834    9.3256 H         1 UNK         0.0813 
     95 H95       -54.5159  -30.6958   10.8571 H         1 UNK         0.0813 
     96 H96       -56.4289  -32.6175   10.9485 H         1 UNK         0.0638 
     97 H97       -58.0983  -32.2924   10.5711 H         1 UNK         0.0638 
     98 H98       -58.1737  -30.7361   12.6442 H         1 UNK         0.0568 
     99 H99       -60.0735  -32.1493   12.5217 H         1 UNK         0.3450 
    100 H100      -60.0830  -33.6319   13.4406 H         1 UNK         0.3450 
    101 H101      -55.8264  -32.1613   13.6741 H         1 UNK         0.2987 
    102 H102      -54.6758  -30.8932   15.3346 H         1 UNK         0.0766 
    103 H103      -53.2155  -29.8961   12.8278 H         1 UNK         0.0798 
    104 H104      -52.4058  -30.4899   14.2756 H         1 UNK         0.0798 
    105 H105      -53.4202  -31.5648   13.3298 H         1 UNK         0.0798 
    106 H106      -53.6383  -28.2406   14.7125 H         1 UNK         0.3198 
    107 H107      -55.5548  -26.4811   17.0095 H         1 UNK         0.0843 
    108 H108      -54.4073  -27.6928   18.8677 H         1 UNK         0.0831 
    109 H109      -53.6492  -26.1365   18.5748 H         1 UNK         0.0831 
    110 H110      -52.8802  -27.6144   17.9986 H         1 UNK         0.0831 
    111 H111      -52.8363  -26.0937   16.0862 H         1 UNK         0.3133 
    112 H112      -53.6034  -25.1479   12.8136 H         1 UNK         0.0566 
    113 H113      -54.3098  -22.9998   13.8944 H         1 UNK         0.0814 
    114 H114      -52.6699  -22.8996   13.2816 H         1 UNK         0.0814 
    115 H115      -52.9546  -23.1082   15.0092 H         1 UNK         0.0814 
    116 H116      -51.2316  -24.7424   14.3247 H         1 UNK         0.3091 
    117 H117      -50.2332  -27.9193   15.0389 H         1 UNK         0.0702 
    118 H118      -49.0821  -26.7519   12.4512 H         1 UNK         0.0785 
    119 H119      -49.6919  -28.3874   12.6721 H         1 UNK         0.0785 
    120 H120      -48.2505  -27.8715   13.5264 H         1 UNK         0.0785 
    121 H121      -48.5079  -25.7220   14.7133 H         1 UNK         0.2998 
    122 H122      -49.5505  -23.6782   17.3822 H         1 UNK         0.0697 
    123 H123      -47.1099  -25.5251   17.2333 H         1 UNK         0.0825 
    124 H124      -48.2405  -25.3972   18.5692 H         1 UNK         0.0825 
    125 H125      -47.2124  -24.0319   18.1651 H         1 UNK         0.0825 
    126 H126      -48.7709  -22.5273   15.6857 H         1 UNK         0.3029 
    127 H127      -47.6956  -21.7491   13.9784 H         1 UNK         0.0897 
    128 H128      -45.5249  -21.6640   12.7341 H         1 UNK         0.0792 
    129 H129      -45.2661  -21.9901   14.4420 H         1 UNK         0.0792 
    130 H130      -45.1434  -23.2993   13.2758 H         1 UNK         0.0792 
    131 H131      -47.1047  -23.5853   11.7824 H         1 UNK         0.3086 
    132 H132      -49.1226  -24.9995   10.9810 H         1 UNK         0.0583 
    133 H133      -51.5111  -24.3282   11.5394 H         1 UNK         0.1020 
    134 H134      -51.3960  -23.0329   10.3887 H         1 UNK         0.1020 
    135 H135      -52.6670  -26.3114   11.0231 H         1 UNK         0.0694 
    136 H136      -53.7054  -25.2269   10.1155 H         1 UNK         0.0694 
    137 H137      -48.0128  -24.0654    9.3553 H         1 UNK         0.2989 
    138 H138      -48.3487  -22.4569    7.1415 H         1 UNK         0.1055 
    139 H139      -48.7568  -20.0423    7.3672 H         1 UNK         0.0806 
    140 H140      -47.1318  -20.2965    6.7544 H         1 UNK         0.0806 
    141 H141      -47.3823  -19.8557    8.4433 H         1 UNK         0.0806 
    142 H142      -46.3264  -23.2963    7.5005 H         1 UNK         0.3061 
    143 H143      -43.8195  -22.8977    8.2189 H         1 UNK         0.0734 
    144 H144      -43.1976  -21.8681   10.4071 H         1 UNK         0.0832 
    145 H145      -43.9830  -23.1882   11.2614 H         1 UNK         0.0832 
    146 H146      -42.5648  -23.4995   10.2666 H         1 UNK         0.0832 
    147 H147      -44.2711  -25.0841    8.2108 H         1 UNK         0.3156 
    148 H148      -44.5992  -27.2265    9.4591 H         1 UNK         0.0589 
    149 H149      -47.4986  -27.2957   10.4409 H         1 UNK         0.0808 
    150 H150      -46.4229  -28.6814   10.2694 H         1 UNK         0.0808 
    151 H151      -46.0769  -27.4433   11.4642 H         1 UNK         0.0808 
    152 H152      -47.0438  -27.5919    8.0432 H         1 UNK         0.3098 
    153 H153      -46.4469  -26.2528    5.0667 H         1 UNK         0.0720 
    154 H154      -45.8315  -28.2704    3.7347 H         1 UNK         0.0791 
    155 H155      -45.1185  -29.0143    5.1669 H         1 UNK         0.0791 
    156 H156      -44.4146  -27.5573    4.4804 H         1 UNK         0.0791 
    157 H157      -47.5297  -28.8825    5.6324 H         1 UNK         0.3028 
@<TRIPOS>BOND
     1    1    2 1    
     2    1   82 1    
     3    1   83 1    
     4    1   84 1    
     5    2    3 2    
     6    2    4 am   BACKBONE|DICT|INTERRES
     7    4    5 1    
     8    4   85 1    
     9    5    6 1    
    10    5   80 1    
    11    5   86 1    
    12    6    7 1    
    13    6   87 1    
    14    6   88 1    
    15    7    8 1    
    16    8    9 1    
    17    8   89 1    
    18    8   90 1    
    19    9   10 ar   
    20    9   14 ar   
    21   10   11 ar   
    22   10   91 1    
    23   11   12 ar   
    24   11   58 1    
    25   12   13 ar   
    26   12   92 1    
    27   13   14 ar   
    28   13   15 1    
    29   14   93 1    
    30   15   16 1    
    31   15   94 1    
    32   15   95 1    
    33   16   17 1    
    34   17   18 1    
    35   17   96 1    
    36   17   97 1    
    37   18   19 1    
    38   18   22 1    
    39   18   98 1    
    40   19   20 am   BACKBONE|DICT|INTERRES
    41   19   21 2    
    42   20   99 1    
    43   20  100 1    
    44   22   23 am   BACKBONE|DICT|INTERRES
    45   22  101 1    
    46   23   24 2    
    47   23   25 1    
    48   25   26 1    
    49   25   27 1    
    50   25  102 1    
    51   26  103 1    
    52   26  104 1    
    53   26  105 1    
    54   27   28 am   BACKBONE|DICT|INTERRES
    55   27  106 1    
    56   28   29 2    
    57   28   30 1    
    58   30   31 1    
    59   30   32 1    
    60   30  107 1    
    61   31  108 1    
    62   31  109 1    
    63   31  110 1    
    64   32   33 am   BACKBONE|DICT|INTERRES
    65   32  111 1    
    66   33   34 2    
    67   33   35 1    
    68   35   36 1    
    69   35   37 1    
    70   35  112 1    
    71   36  113 1    
    72   36  114 1    
    73   36  115 1    
    74   37   38 am   BACKBONE|DICT|INTERRES
    75   37  116 1    
    76   38   39 2    
    77   38   40 1    
    78   40   41 1    
    79   40   42 1    
    80   40  117 1    
    81   41  118 1    
    82   41  119 1    
    83   41  120 1    
    84   42   43 am   BACKBONE|DICT|INTERRES
    85   42  121 1    
    86   43   44 2    
    87   43   45 1    
    88   45   46 1    
    89   45   47 1    
    90   45  122 1    
    91   46  123 1    
    92   46  124 1    
    93   46  125 1    
    94   47   48 am   BACKBONE|DICT|INTERRES
    95   47  126 1    
    96   48   49 2    
    97   48   50 1    
    98   50   51 1    
    99   50   52 1    
   100   50  127 1    
   101   51  128 1    
   102   51  129 1    
   103   51  130 1    
   104   52   53 am   BACKBONE|DICT|INTERRES
   105   52  131 1    
   106   53   54 2    
   107   53   55 1    
   108   55   56 1    
   109   55   59 1    
   110   55  132 1    
   111   56   57 1    
   112   56  133 1    
   113   56  134 1    
   114   57   58 1    
   115   58  135 1    
   116   58  136 1    
   117   59   60 am   BACKBONE|DICT|INTERRES
   118   59  137 1    
   119   60   61 2    
   120   60   62 1    
   121   62   63 1    
   122   62   64 1    
   123   62  138 1    
   124   63  139 1    
   125   63  140 1    
   126   63  141 1    
   127   64   65 am   BACKBONE|DICT|INTERRES
   128   64  142 1    
   129   65   66 2    
   130   65   67 1    
   131   67   68 1    
   132   67   69 1    
   133   67  143 1    
   134   68  144 1    
   135   68  145 1    
   136   68  146 1    
   137   69   70 am   BACKBONE|DICT|INTERRES
   138   69  147 1    
   139   70   71 2    
   140   70   72 1    
   141   72   73 1    
   142   72   74 1    
   143   72  148 1    
   144   73  149 1    
   145   73  150 1    
   146   73  151 1    
   147   74   75 am   BACKBONE|DICT|INTERRES
   148   74  152 1    
   149   75   76 2    
   150   75   77 1    
   151   77   78 1    
   152   77   79 1    
   153   77  153 1    
   154   78  154 1    
   155   78  155 1    
   156   78  156 1    
   157   79   80 am   BACKBONE|DICT|INTERRES
   158   79  157 1    
   159   80   81 2    
@<TRIPOS>SUBSTRUCTURE
     1 UNK         1 GROUP             0       ****    0 ROOT    
