@<TRIPOS>MOLECULE
3R207
157   159    1
SMALL
USER_CHARGES


@<TRIPOS>ATOM
      1 CA        -46.4682  -29.3152    9.0890 C.3       0 UNK        -0.1975 
      2 C         -47.7316  -30.0624    9.5116 C.2       0 UNK         0.4852 
      3 O         -47.7748  -30.5747   10.6286 O.2       0 UNK        -0.5216 
      4 N         -48.7737  -30.1740    8.6736 N.am      1 UNK        -0.4461 
      5 CA        -48.9476  -29.5876    7.3381 C.3       1 UNK         0.0864 
      6 C6        -50.1720  -30.2034    6.6044 C.3       14 UNK        -0.0898 
      7 S7        -51.7450  -30.1043    7.5296 S.3       14 UNK        -0.2598 
      8 C8        -52.6768  -28.8238    6.6246 C.3       14 UNK         0.0286 
      9 C9        -53.2878  -27.8188    7.5899 C.ar      14 UNK        -0.0844 
     10 C10       -52.7375  -26.5394    7.7143 C.ar      14 UNK        -0.0881 
     11 C11       -53.2558  -25.6277    8.6438 C.ar      14 UNK        -0.0643 
     12 C12       -54.3422  -26.0160    9.4328 C.ar      14 UNK        -0.0930 
     13 C13       -54.9034  -27.2914    9.3315 C.ar      14 UNK        -0.0827 
     14 C14       -54.3784  -28.1831    8.3866 C.ar      14 UNK        -0.1249 
     15 C15       -56.0518  -27.6395   10.2851 C.3       14 UNK         0.0141 
     16 S16       -56.6534  -29.3639   10.2572 S.3       14 UNK        -0.2313 
     17 C17       -55.2545  -30.2785   10.9888 C.3       14 UNK        -0.0915 
     18 CA        -55.5488  -30.7738   12.4306 C.3       13 UNK         0.0968 
     19 C         -54.6058  -31.9400   12.8574 C.2       13 UNK         0.5732 
     20 N         -54.0254  -31.9452   14.0521 N.am      13 UNK        -0.7310 
     21 O         -54.4093  -32.8830   12.0944 O.2       13 UNK        -0.5035 
     22 N         -55.5645  -29.6545   13.3853 N.am      13 UNK        -0.4233 
     23 C         -56.3655  -29.5709   14.4531 C.2       13 UNK         0.4989 
     24 O         -57.2619  -30.3798   14.7026 O.2       13 UNK        -0.4996 
     25 CA        -56.0943  -28.3951   15.4139 C.3       12 UNK         0.0216 
     26 CB        -56.9415  -28.4609   16.7022 C.3       12 UNK        -0.1964 
     27 N         -54.6720  -28.2387   15.7481 N.am      12 UNK        -0.4276 
     28 C         -53.8476  -29.1567   16.2789 C.2       12 UNK         0.5020 
     29 O         -54.1980  -30.3047   16.5540 O.2       12 UNK        -0.5489 
     30 CA        -52.3728  -28.7661   16.5129 C.3       11 UNK         0.0294 
     31 CB        -51.4511  -29.6264   15.6335 C.3       11 UNK        -0.2019 
     32 N         -52.0868  -27.3507   16.2629 N.am      11 UNK        -0.4493 
     33 C         -52.4214  -26.3469   17.0858 C.2       11 UNK         0.4932 
     34 O         -52.9248  -26.5082   18.1973 O.2       11 UNK        -0.5029 
     35 CA        -52.2123  -24.9206   16.5495 C.3       10 UNK         0.0280 
     36 CB        -50.7971  -24.4123   16.8680 C.3       10 UNK        -0.1976 
     37 N         -52.4651  -24.8294   15.1078 N.am      10 UNK        -0.4242 
     38 C         -53.6705  -24.9863   14.5395 C.2       10 UNK         0.5072 
     39 O         -54.7062  -25.1852   15.1737 O.2       10 UNK        -0.5224 
     40 CA        -53.7233  -24.9694   13.0054 C.3       9 UNK         0.0343 
     41 CB        -53.7114  -23.5205   12.4902 C.3       9 UNK        -0.2003 
     42 N         -52.6306  -25.7490   12.4127 N.am      9 UNK        -0.4272 
     43 C         -52.5606  -27.0911   12.4732 C.2       9 UNK         0.4988 
     44 O         -53.4631  -27.7935   12.9302 O.2       9 UNK        -0.5108 
     45 CA        -51.2653  -27.7822   12.0005 C.3       8 UNK         0.0248 
     46 CB        -51.4227  -28.3674   10.5976 C.3       8 UNK        -0.2001 
     47 N         -50.0809  -26.9292   12.0153 N.am      8 UNK        -0.4140 
     48 C         -49.5615  -26.3570   13.1073 C.2       8 UNK         0.5028 
     49 O         -49.9943  -26.5467   14.2450 O.2       8 UNK        -0.5428 
     50 CA        -48.4088  -25.3617   12.8873 C.3       7 UNK         0.0264 
     51 CB        -47.0574  -26.0406   13.1523 C.3       7 UNK        -0.1988 
     52 N         -48.3868  -24.7322   11.5583 N.am      7 UNK        -0.4454 
     53 C         -49.3800  -24.0017   11.0264 C.2       7 UNK         0.5027 
     54 O         -50.4602  -23.8217   11.5918 O.2       7 UNK        -0.5083 
     55 CA        -49.0909  -23.3659    9.6479 C.3       6 UNK         0.0844 
     56 C56       -50.3118  -22.6638    8.9803 C.3       14 UNK        -0.0967 
     57 S57       -51.2229  -23.7856    7.8663 S.3       14 UNK        -0.2604 
     58 C58       -52.6608  -24.2397    8.8898 C.3       14 UNK         0.0134 
     59 N         -47.9066  -22.5085    9.7243 N.am      6 UNK        -0.4116 
     60 C         -47.7744  -21.3663   10.4143 C.2       5 UNK         0.5034 
     61 O         -48.6916  -20.8236   11.0321 O.2       5 UNK        -0.5045 
     62 CA        -46.3737  -20.7176   10.3863 C.3       5 UNK         0.0224 
     63 CB        -46.1261  -19.7669   11.5780 C.3       5 UNK        -0.1978 
     64 N         -45.2850  -21.6996   10.2494 N.am      5 UNK        -0.4737 
     65 C         -44.9424  -22.6597   11.1235 C.2       4 UNK         0.5027 
     66 O         -45.4675  -22.8104   12.2266 O.2       4 UNK        -0.5211 
     67 CA        -43.8588  -23.6419   10.6344 C.3       4 UNK         0.0297 
     68 CB        -43.5602  -24.7730   11.6412 C.3       4 UNK        -0.1993 
     69 N         -44.1669  -24.2014    9.3092 N.am      4 UNK        -0.4486 
     70 C         -45.2681  -24.8825    8.9592 C.2       3 UNK         0.4961 
     71 O         -46.2036  -25.1390    9.7232 O.2       3 UNK        -0.5105 
     72 CA        -45.3432  -25.3347    7.4974 C.3       3 UNK         0.0299 
     73 CB        -44.4164  -26.5350    7.2343 C.3       3 UNK        -0.1972 
     74 N         -46.7231  -25.6981    7.1879 N.am      3 UNK        -0.4305 
     75 C         -47.3184  -25.5673    5.9985 C.2       2 UNK         0.5006 
     76 O         -46.7475  -25.1536    4.9878 O.2       2 UNK        -0.5106 
     77 CA        -48.7896  -26.0112    5.9300 C.3       2 UNK         0.0296 
     78 CB        -49.4689  -25.6487    4.5965 C.3       2 UNK        -0.2002 
     79 N         -48.8930  -27.4534    6.1448 N.am      2 UNK        -0.4032 
     80 C         -48.9782  -28.0411    7.3450 C.2       1 UNK         0.5000 
     81 O         -49.0378  -27.4090    8.4046 O.2       1 UNK        -0.5238 
     82 H82       -46.5729  -28.2512    9.3007 H         1 UNK         0.0889 
     83 H83       -46.2411  -29.4448    8.0324 H         1 UNK         0.0889 
     84 H84       -45.6096  -29.6816    9.6511 H         1 UNK         0.0889 
     85 H85       -49.5934  -30.6588    9.0090 H         1 UNK         0.3028 
     86 H86       -48.0684  -29.8698    6.7565 H         1 UNK         0.0864 
     87 H87       -50.2949  -29.7834    5.6050 H         1 UNK         0.0720 
     88 H88       -49.9778  -31.2637    6.4344 H         1 UNK         0.0720 
     89 H89       -53.4654  -29.3002    6.0405 H         1 UNK         0.0814 
     90 H90       -52.0322  -28.3125    5.9086 H         1 UNK         0.0814 
     91 H91       -51.8830  -26.2790    7.1071 H         1 UNK         0.1469 
     92 H92       -54.7413  -25.3232   10.1599 H         1 UNK         0.1381 
     93 H93       -54.7845  -29.1787    8.2835 H         1 UNK         0.1206 
     94 H94       -55.7523  -27.4013   11.3069 H         1 UNK         0.0813 
     95 H95       -56.8959  -26.9887   10.0539 H         1 UNK         0.0813 
     96 H96       -55.0516  -31.1129   10.3154 H         1 UNK         0.0638 
     97 H97       -54.3598  -29.6594   10.9781 H         1 UNK         0.0638 
     98 H98       -56.5418  -31.2262   12.4129 H         1 UNK         0.0568 
     99 H99       -53.4314  -32.7208   14.2964 H         1 UNK         0.3450 
    100 H100      -54.2193  -31.2290   14.7418 H         1 UNK         0.3450 
    101 H101      -54.8258  -28.9630   13.2658 H         1 UNK         0.2987 
    102 H102      -56.3824  -27.4913   14.8749 H         1 UNK         0.0766 
    103 H103      -58.0072  -28.4728   16.4705 H         1 UNK         0.0798 
    104 H104      -56.7590  -27.5956   17.3395 H         1 UNK         0.0798 
    105 H105      -56.7237  -29.3576   17.2837 H         1 UNK         0.0798 
    106 H106      -54.2836  -27.3292   15.5307 H         1 UNK         0.3198 
    107 H107      -52.1413  -28.9804   17.5585 H         1 UNK         0.0843 
    108 H108      -51.7441  -29.5808   14.5857 H         1 UNK         0.0831 
    109 H109      -51.4993  -30.6744   15.9321 H         1 UNK         0.0831 
    110 H110      -50.4094  -29.3141   15.7109 H         1 UNK         0.0831 
    111 H111      -51.5929  -27.1220   15.4048 H         1 UNK         0.3133 
    112 H112      -52.9269  -24.2678   17.0555 H         1 UNK         0.0566 
    113 H113      -50.6579  -23.3855   16.5295 H         1 UNK         0.0814 
    114 H114      -50.0270  -25.0271   16.4017 H         1 UNK         0.0814 
    115 H115      -50.6140  -24.4256   17.9433 H         1 UNK         0.0814 
    116 H116      -51.6574  -24.7250   14.5097 H         1 UNK         0.3091 
    117 H117      -54.6697  -25.4242   12.7048 H         1 UNK         0.0702 
    118 H118      -53.9236  -23.4688   11.4245 H         1 UNK         0.0785 
    119 H119      -52.7546  -23.0300   12.6703 H         1 UNK         0.0785 
    120 H120      -54.4775  -22.9252   12.9893 H         1 UNK         0.0785 
    121 H121      -51.8441  -25.2259   12.0397 H         1 UNK         0.2998 
    122 H122      -51.0754  -28.6105   12.6824 H         1 UNK         0.0697 
    123 H123      -51.4531  -27.5851    9.8421 H         1 UNK         0.0825 
    124 H124      -52.3332  -28.9546   10.5010 H         1 UNK         0.0825 
    125 H125      -50.5909  -29.0259   10.3566 H         1 UNK         0.0825 
    126 H126      -49.6586  -26.7241   11.1202 H         1 UNK         0.3029 
    127 H127      -48.5385  -24.5635   13.6210 H         1 UNK         0.0897 
    128 H128      -46.8099  -26.7665   12.3764 H         1 UNK         0.0792 
    129 H129      -47.0606  -26.5670   14.1080 H         1 UNK         0.0792 
    130 H130      -46.2558  -25.3042   13.1965 H         1 UNK         0.0792 
    131 H131      -47.5305  -24.8444   11.0178 H         1 UNK         0.3086 
    132 H132      -48.7831  -24.1911    9.0036 H         1 UNK         0.0583 
    133 H133      -50.9800  -22.2000    9.7084 H         1 UNK         0.1020 
    134 H134      -49.9677  -21.8395    8.3539 H         1 UNK         0.1020 
    135 H135      -52.3591  -24.2014    9.9335 H         1 UNK         0.0694 
    136 H136      -53.4348  -23.4825    8.7580 H         1 UNK         0.0694 
    137 H137      -47.0746  -22.8853    9.2960 H         1 UNK         0.2989 
    138 H138      -46.3515  -20.1104    9.4796 H         1 UNK         0.1055 
    139 H139      -46.2210  -20.2805   12.5351 H         1 UNK         0.0806 
    140 H140      -46.8456  -18.9471   11.5799 H         1 UNK         0.0806 
    141 H141      -45.1320  -19.3223   11.5321 H         1 UNK         0.0806 
    142 H142      -44.7806  -21.6685    9.3731 H         1 UNK         0.3061 
    143 H143      -42.9458  -23.0542   10.5250 H         1 UNK         0.0734 
    144 H144      -44.4124  -25.4395   11.7677 H         1 UNK         0.0832 
    145 H145      -42.7139  -25.3770   11.3148 H         1 UNK         0.0832 
    146 H146      -43.3100  -24.3706   12.6236 H         1 UNK         0.0832 
    147 H147      -43.4669  -24.0382    8.5977 H         1 UNK         0.3156 
    148 H148      -45.0394  -24.4946    6.8691 H         1 UNK         0.0589 
    149 H149      -44.6545  -27.3790    7.8812 H         1 UNK         0.0808 
    150 H150      -44.4901  -26.8744    6.2010 H         1 UNK         0.0808 
    151 H151      -43.3726  -26.2743    7.4128 H         1 UNK         0.0808 
    152 H152      -47.2666  -26.0217    7.9820 H         1 UNK         0.3098 
    153 H153      -49.3200  -25.4880    6.7244 H         1 UNK         0.0720 
    154 H154      -48.9942  -26.1447    3.7490 H         1 UNK         0.0791 
    155 H155      -49.4214  -24.5739    4.4161 H         1 UNK         0.0791 
    156 H156      -50.5228  -25.9273    4.6024 H         1 UNK         0.0791 
    157 H157      -48.8019  -28.0306    5.3209 H         1 UNK         0.3028 
@<TRIPOS>BOND
     1    1    2 1    
     2    1   82 1    
     3    1   83 1    
     4    1   84 1    
     5    2    3 2    
     6    2    4 am   BACKBONE|DICT|INTERRES
     7    4    5 1    
     8    4   85 1    
     9    5    6 1    
    10    5   80 1    
    11    5   86 1    
    12    6    7 1    
    13    6   87 1    
    14    6   88 1    
    15    7    8 1    
    16    8    9 1    
    17    8   89 1    
    18    8   90 1    
    19    9   10 ar   
    20    9   14 ar   
    21   10   11 ar   
    22   10   91 1    
    23   11   12 ar   
    24   11   58 1    
    25   12   13 ar   
    26   12   92 1    
    27   13   14 ar   
    28   13   15 1    
    29   14   93 1    
    30   15   16 1    
    31   15   94 1    
    32   15   95 1    
    33   16   17 1    
    34   17   18 1    
    35   17   96 1    
    36   17   97 1    
    37   18   19 1    
    38   18   22 1    
    39   18   98 1    
    40   19   20 am   BACKBONE|DICT|INTERRES
    41   19   21 2    
    42   20   99 1    
    43   20  100 1    
    44   22   23 am   BACKBONE|DICT|INTERRES
    45   22  101 1    
    46   23   24 2    
    47   23   25 1    
    48   25   26 1    
    49   25   27 1    
    50   25  102 1    
    51   26  103 1    
    52   26  104 1    
    53   26  105 1    
    54   27   28 am   BACKBONE|DICT|INTERRES
    55   27  106 1    
    56   28   29 2    
    57   28   30 1    
    58   30   31 1    
    59   30   32 1    
    60   30  107 1    
    61   31  108 1    
    62   31  109 1    
    63   31  110 1    
    64   32   33 am   BACKBONE|DICT|INTERRES
    65   32  111 1    
    66   33   34 2    
    67   33   35 1    
    68   35   36 1    
    69   35   37 1    
    70   35  112 1    
    71   36  113 1    
    72   36  114 1    
    73   36  115 1    
    74   37   38 am   BACKBONE|DICT|INTERRES
    75   37  116 1    
    76   38   39 2    
    77   38   40 1    
    78   40   41 1    
    79   40   42 1    
    80   40  117 1    
    81   41  118 1    
    82   41  119 1    
    83   41  120 1    
    84   42   43 am   BACKBONE|DICT|INTERRES
    85   42  121 1    
    86   43   44 2    
    87   43   45 1    
    88   45   46 1    
    89   45   47 1    
    90   45  122 1    
    91   46  123 1    
    92   46  124 1    
    93   46  125 1    
    94   47   48 am   BACKBONE|DICT|INTERRES
    95   47  126 1    
    96   48   49 2    
    97   48   50 1    
    98   50   51 1    
    99   50   52 1    
   100   50  127 1    
   101   51  128 1    
   102   51  129 1    
   103   51  130 1    
   104   52   53 am   BACKBONE|DICT|INTERRES
   105   52  131 1    
   106   53   54 2    
   107   53   55 1    
   108   55   56 1    
   109   55   59 1    
   110   55  132 1    
   111   56   57 1    
   112   56  133 1    
   113   56  134 1    
   114   57   58 1    
   115   58  135 1    
   116   58  136 1    
   117   59   60 am   BACKBONE|DICT|INTERRES
   118   59  137 1    
   119   60   61 2    
   120   60   62 1    
   121   62   63 1    
   122   62   64 1    
   123   62  138 1    
   124   63  139 1    
   125   63  140 1    
   126   63  141 1    
   127   64   65 am   BACKBONE|DICT|INTERRES
   128   64  142 1    
   129   65   66 2    
   130   65   67 1    
   131   67   68 1    
   132   67   69 1    
   133   67  143 1    
   134   68  144 1    
   135   68  145 1    
   136   68  146 1    
   137   69   70 am   BACKBONE|DICT|INTERRES
   138   69  147 1    
   139   70   71 2    
   140   70   72 1    
   141   72   73 1    
   142   72   74 1    
   143   72  148 1    
   144   73  149 1    
   145   73  150 1    
   146   73  151 1    
   147   74   75 am   BACKBONE|DICT|INTERRES
   148   74  152 1    
   149   75   76 2    
   150   75   77 1    
   151   77   78 1    
   152   77   79 1    
   153   77  153 1    
   154   78  154 1    
   155   78  155 1    
   156   78  156 1    
   157   79   80 am   BACKBONE|DICT|INTERRES
   158   79  157 1    
   159   80   81 2    
@<TRIPOS>SUBSTRUCTURE
     1 UNK         1 GROUP             0       ****    0 ROOT    
