@<TRIPOS>MOLECULE
3R207
157   159    1
SMALL
USER_CHARGES


@<TRIPOS>ATOM
      1 CA        -48.8885  -32.1157    2.9462 C.3       0 UNK        -0.1975 
      2 C         -48.5778  -31.1187    4.0535 C.2       0 UNK         0.4852 
      3 O         -47.5408  -31.2417    4.7071 O.2       0 UNK        -0.5216 
      4 N         -49.4736  -30.1433    4.2660 N.am      1 UNK        -0.4461 
      5 CA        -49.3584  -29.0476    5.2384 C.3       1 UNK         0.0864 
      6 C6        -49.2441  -29.5609    6.7065 C.3       14 UNK        -0.0898 
      7 S7        -49.9208  -28.3971    7.9359 S.3       14 UNK        -0.2598 
      8 C8        -51.6391  -28.9741    8.1026 C.3       14 UNK         0.0286 
      9 C9        -52.4744  -27.9593    8.8696 C.ar      14 UNK        -0.0844 
     10 C10       -52.6250  -26.6677    8.3587 C.ar      14 UNK        -0.0881 
     11 C11       -53.3445  -25.7025    9.0645 C.ar      14 UNK        -0.0643 
     12 C12       -53.9637  -26.0489   10.2677 C.ar      14 UNK        -0.0930 
     13 C13       -53.8429  -27.3440   10.7793 C.ar      14 UNK        -0.0827 
     14 C14       -53.0855  -28.2938   10.0833 C.ar      14 UNK        -0.1249 
     15 C15       -54.5219  -27.6967   12.0931 C.3       14 UNK         0.0141 
     16 S16       -56.2311  -28.2601   11.8266 S.3       14 UNK        -0.2313 
     17 C17       -55.9792  -30.0455   11.5288 C.3       14 UNK        -0.0915 
     18 CA        -56.6024  -30.9378   12.6427 C.3       13 UNK         0.0968 
     19 C         -56.4742  -32.4610   12.3353 C.2       13 UNK         0.5732 
     20 N         -56.3352  -33.3271   13.3322 N.am      13 UNK        -0.7310 
     21 O         -56.5374  -32.8737   11.1793 O.2       13 UNK        -0.5035 
     22 N         -56.1923  -30.5394   14.0014 N.am      13 UNK        -0.4233 
     23 C         -54.9567  -30.5650   14.5132 C.2       13 UNK         0.4989 
     24 O         -53.9676  -30.9866   13.9118 O.2       13 UNK        -0.4996 
     25 CA        -54.8108  -29.9829   15.9334 C.3       12 UNK         0.0216 
     26 CB        -53.4262  -30.2637   16.5470 C.3       12 UNK        -0.1964 
     27 N         -55.0649  -28.5371   15.9575 N.am      12 UNK        -0.4276 
     28 C         -56.2776  -27.9649   15.8750 C.2       12 UNK         0.5020 
     29 O         -57.3195  -28.6191   15.7932 O.2       12 UNK        -0.5489 
     30 CA        -56.3742  -26.4280   15.8830 C.3       11 UNK         0.0294 
     31 CB        -57.2078  -25.9383   17.0801 C.3       11 UNK        -0.2019 
     32 N         -55.0629  -25.7809   15.9277 N.am      11 UNK        -0.4493 
     33 C         -54.5946  -24.8890   15.0484 C.2       11 UNK         0.4932 
     34 O         -55.2305  -24.4748   14.0794 O.2       11 UNK        -0.5029 
     35 CA        -53.1659  -24.3705   15.2927 C.3       10 UNK         0.0280 
     36 CB        -52.9753  -23.8165   16.7200 C.3       10 UNK        -0.1976 
     37 N         -52.1246  -25.3486   14.9591 N.am      10 UNK        -0.4242 
     38 C         -51.9199  -26.5623   15.4926 C.2       10 UNK         0.5072 
     39 O         -52.6206  -27.0557   16.3780 O.2       10 UNK        -0.5224 
     40 CA        -50.7355  -27.3735   14.9480 C.3       9 UNK         0.0343 
     41 CB        -51.1271  -28.0971   13.6502 C.3       9 UNK        -0.2003 
     42 N         -49.5383  -26.5610   14.7229 N.am      9 UNK        -0.4272 
     43 C         -48.7792  -26.0430   15.6998 C.2       9 UNK         0.4988 
     44 O         -49.0111  -26.1914   16.9003 O.2       9 UNK        -0.5108 
     45 CA        -47.5396  -25.2378   15.2726 C.3       8 UNK         0.0248 
     46 CB        -46.4020  -26.1771   14.8400 C.3       8 UNK        -0.2001 
     47 N         -47.8221  -24.2768   14.2053 N.am      8 UNK        -0.4140 
     48 C         -48.5751  -23.1777   14.3563 C.2       8 UNK         0.5028 
     49 O         -49.0646  -22.8223   15.4292 O.2       8 UNK        -0.5428 
     50 CA        -48.8448  -22.3349   13.0966 C.3       7 UNK         0.0264 
     51 CB        -47.6823  -21.3664   12.8269 C.3       7 UNK        -0.1988 
     52 N         -49.1046  -23.1377   11.8984 N.am      7 UNK        -0.4454 
     53 C         -50.1212  -24.0054   11.7713 C.2       7 UNK         0.5027 
     54 O         -50.9513  -24.2231   12.6546 O.2       7 UNK        -0.5083 
     55 CA        -50.1907  -24.8069   10.4556 C.3       6 UNK         0.0844 
     56 C56       -50.6726  -23.9409    9.2585 C.3       14 UNK        -0.0967 
     57 S57       -52.3179  -23.1712    9.4910 S.3       14 UNK        -0.2604 
     58 C58       -53.4133  -24.2764    8.5450 C.3       14 UNK         0.0134 
     59 N         -48.9087  -25.4573   10.1685 N.am      6 UNK        -0.4116 
     60 C         -48.2629  -26.3161   10.9717 C.2       5 UNK         0.5034 
     61 O         -48.7151  -26.7400   12.0327 O.2       5 UNK        -0.5045 
     62 CA        -46.8308  -26.7079   10.5718 C.3       5 UNK         0.0224 
     63 CB        -46.8095  -27.8521    9.5486 C.3       5 UNK        -0.1978 
     64 N         -46.0682  -25.5687   10.0603 N.am      5 UNK        -0.4737 
     65 C         -45.6744  -24.5297   10.8091 C.2       4 UNK         0.5027 
     66 O         -45.8769  -24.4428   12.0193 O.2       4 UNK        -0.5211 
     67 CA        -44.9693  -23.3799   10.0722 C.3       4 UNK         0.0297 
     68 CB        -43.4727  -23.6836    9.9007 C.3       4 UNK        -0.1993 
     69 N         -45.5709  -23.1019    8.7650 N.am      4 UNK        -0.4486 
     70 C         -46.8034  -22.6026    8.5969 C.2       3 UNK         0.4961 
     71 O         -47.5492  -22.2909    9.5260 O.2       3 UNK        -0.5105 
     72 CA        -47.3030  -22.4759    7.1463 C.3       3 UNK         0.0299 
     73 CB        -46.7505  -21.1997    6.4919 C.3       3 UNK        -0.1972 
     74 N         -46.9868  -23.6420    6.3096 N.am      3 UNK        -0.4305 
     75 C         -47.4255  -24.8844    6.5525 C.2       2 UNK         0.5006 
     76 O         -48.1053  -25.1861    7.5347 O.2       2 UNK        -0.5106 
     77 CA        -47.0208  -25.9819    5.5630 C.3       2 UNK         0.0296 
     78 CB        -45.5722  -26.4422    5.8086 C.3       2 UNK        -0.2002 
     79 N         -47.9365  -27.1056    5.7436 N.am      2 UNK        -0.4032 
     80 C         -48.2731  -28.0173    4.8271 C.2       1 UNK         0.5000 
     81 O         -47.8000  -28.0310    3.6862 O.2       1 UNK        -0.5238 
     82 H82       -48.9344  -33.1257    3.3527 H         1 UNK         0.0889 
     83 H83       -48.1066  -32.0886    2.1878 H         1 UNK         0.0889 
     84 H84       -49.8401  -31.9029    2.4595 H         1 UNK         0.0889 
     85 H85       -50.2851  -30.0932    3.6658 H         1 UNK         0.3028 
     86 H86       -50.3046  -28.5115    5.1495 H         1 UNK         0.0864 
     87 H87       -49.7783  -30.5057    6.8195 H         1 UNK         0.0720 
     88 H88       -48.2064  -29.7816    6.9639 H         1 UNK         0.0720 
     89 H89       -51.6465  -29.9453    8.5997 H         1 UNK         0.0814 
     90 H90       -52.0760  -29.1213    7.1139 H         1 UNK         0.0814 
     91 H91       -52.1431  -26.4045    7.4271 H         1 UNK         0.1469 
     92 H92       -54.5244  -25.3033   10.8155 H         1 UNK         0.1381 
     93 H93       -52.9719  -29.2906   10.4861 H         1 UNK         0.1206 
     94 H94       -53.9555  -28.4585   12.6269 H         1 UNK         0.0813 
     95 H95       -54.5381  -26.8229   12.7446 H         1 UNK         0.0813 
     96 H96       -56.4298  -30.2754   10.5620 H         1 UNK         0.0638 
     97 H97       -54.9164  -30.2628   11.4210 H         1 UNK         0.0638 
     98 H98       -57.6772  -30.7565   12.6188 H         1 UNK         0.0568 
     99 H99       -56.2650  -34.3108   13.1251 H         1 UNK         0.3450 
    100 H100      -56.2944  -33.0058   14.2856 H         1 UNK         0.3450 
    101 H101      -56.9140  -30.1061   14.5700 H         1 UNK         0.2987 
    102 H102      -55.5531  -30.4758   16.5650 H         1 UNK         0.0766 
    103 H103      -53.3585  -29.8813   17.5657 H         1 UNK         0.0798 
    104 H104      -52.6238  -29.8081   15.9667 H         1 UNK         0.0798 
    105 H105      -53.2284  -31.3355   16.5893 H         1 UNK         0.0798 
    106 H106      -54.2400  -27.9463   16.0240 H         1 UNK         0.3198 
    107 H107      -56.8969  -26.1523   14.9645 H         1 UNK         0.0843 
    108 H108      -56.7454  -26.2071   18.0305 H         1 UNK         0.0831 
    109 H109      -58.2077  -26.3744   17.0680 H         1 UNK         0.0831 
    110 H110      -57.3293  -24.8551   17.0604 H         1 UNK         0.0831 
    111 H111      -54.4169  -26.0998   16.6418 H         1 UNK         0.3133 
    112 H112      -53.0157  -23.5380   14.6034 H         1 UNK         0.0566 
    113 H113      -52.0071  -23.3249   16.8193 H         1 UNK         0.0814 
    114 H114      -53.7400  -23.0754   16.9561 H         1 UNK         0.0814 
    115 H115      -53.0282  -24.5943   17.4820 H         1 UNK         0.0814 
    116 H116      -51.5236  -25.0615   14.1869 H         1 UNK         0.3091 
    117 H117      -50.4869  -28.1334   15.6919 H         1 UNK         0.0702 
    118 H118      -51.9749  -28.7619   13.8154 H         1 UNK         0.0785 
    119 H119      -51.4021  -27.3954   12.8609 H         1 UNK         0.0785 
    120 H120      -50.3077  -28.7114   13.2768 H         1 UNK         0.0785 
    121 H121      -49.2502  -26.4387   13.7533 H         1 UNK         0.2998 
    122 H122      -47.1950  -24.6751   16.1428 H         1 UNK         0.0697 
    123 H123      -46.6698  -26.7572   13.9566 H         1 UNK         0.0825 
    124 H124      -46.1565  -26.8844   15.6333 H         1 UNK         0.0825 
    125 H125      -45.4939  -25.6196   14.6098 H         1 UNK         0.0825 
    126 H126      -47.3894  -24.4519   13.3027 H         1 UNK         0.3029 
    127 H127      -49.7421  -21.7427   13.2886 H         1 UNK         0.0897 
    128 H128      -46.7577  -21.8981   12.6006 H         1 UNK         0.0792 
    129 H129      -47.4917  -20.7339   13.6950 H         1 UNK         0.0792 
    130 H130      -47.9020  -20.7073   11.9867 H         1 UNK         0.0792 
    131 H131      -48.4797  -22.9949   11.1088 H         1 UNK         0.3086 
    132 H132      -50.9146  -25.6100   10.6055 H         1 UNK         0.0583 
    133 H133      -49.9618  -23.1388    9.0608 H         1 UNK         0.1020 
    134 H134      -50.6849  -24.5417    8.3484 H         1 UNK         0.1020 
    135 H135      -54.4383  -23.9102    8.6184 H         1 UNK         0.0694 
    136 H136      -53.1453  -24.2320    7.4882 H         1 UNK         0.0694 
    137 H137      -48.4820  -25.2259    9.2735 H         1 UNK         0.2989 
    138 H138      -46.3332  -27.0644   11.4765 H         1 UNK         0.1055 
    139 H139      -47.4198  -28.6909    9.8865 H         1 UNK         0.0806 
    140 H140      -45.7977  -28.2282    9.3974 H         1 UNK         0.0806 
    141 H141      -47.1939  -27.5358    8.5806 H         1 UNK         0.0806 
    142 H142      -45.8969  -25.5384    9.0669 H         1 UNK         0.3061 
    143 H143      -45.0671  -22.4828   10.6875 H         1 UNK         0.0734 
    144 H144      -42.9459  -22.8424    9.4497 H         1 UNK         0.0832 
    145 H145      -43.0030  -23.8770   10.8663 H         1 UNK         0.0832 
    146 H146      -43.3039  -24.5613    9.2756 H         1 UNK         0.0832 
    147 H147      -45.0252  -23.3267    7.9459 H         1 UNK         0.3156 
    148 H148      -48.3909  -22.3884    7.1842 H         1 UNK         0.0589 
    149 H149      -45.6659  -21.2350    6.3818 H         1 UNK         0.0808 
    150 H150      -47.1836  -21.0407    5.5042 H         1 UNK         0.0808 
    151 H151      -46.9883  -20.3200    7.0920 H         1 UNK         0.0808 
    152 H152      -46.4276  -23.4738    5.4852 H         1 UNK         0.3098 
    153 H153      -47.1216  -25.5886    4.5493 H         1 UNK         0.0720 
    154 H154      -45.2813  -27.2212    5.1036 H         1 UNK         0.0791 
    155 H155      -45.4395  -26.8402    6.8153 H         1 UNK         0.0791 
    156 H156      -44.8683  -25.6184    5.6849 H         1 UNK         0.0791 
    157 H157      -48.4188  -27.1060    6.6371 H         1 UNK         0.3028 
@<TRIPOS>BOND
     1    1    2 1    
     2    1   82 1    
     3    1   83 1    
     4    1   84 1    
     5    2    3 2    
     6    2    4 am   BACKBONE|DICT|INTERRES
     7    4    5 1    
     8    4   85 1    
     9    5    6 1    
    10    5   80 1    
    11    5   86 1    
    12    6    7 1    
    13    6   87 1    
    14    6   88 1    
    15    7    8 1    
    16    8    9 1    
    17    8   89 1    
    18    8   90 1    
    19    9   10 ar   
    20    9   14 ar   
    21   10   11 ar   
    22   10   91 1    
    23   11   12 ar   
    24   11   58 1    
    25   12   13 ar   
    26   12   92 1    
    27   13   14 ar   
    28   13   15 1    
    29   14   93 1    
    30   15   16 1    
    31   15   94 1    
    32   15   95 1    
    33   16   17 1    
    34   17   18 1    
    35   17   96 1    
    36   17   97 1    
    37   18   19 1    
    38   18   22 1    
    39   18   98 1    
    40   19   20 am   BACKBONE|DICT|INTERRES
    41   19   21 2    
    42   20   99 1    
    43   20  100 1    
    44   22   23 am   BACKBONE|DICT|INTERRES
    45   22  101 1    
    46   23   24 2    
    47   23   25 1    
    48   25   26 1    
    49   25   27 1    
    50   25  102 1    
    51   26  103 1    
    52   26  104 1    
    53   26  105 1    
    54   27   28 am   BACKBONE|DICT|INTERRES
    55   27  106 1    
    56   28   29 2    
    57   28   30 1    
    58   30   31 1    
    59   30   32 1    
    60   30  107 1    
    61   31  108 1    
    62   31  109 1    
    63   31  110 1    
    64   32   33 am   BACKBONE|DICT|INTERRES
    65   32  111 1    
    66   33   34 2    
    67   33   35 1    
    68   35   36 1    
    69   35   37 1    
    70   35  112 1    
    71   36  113 1    
    72   36  114 1    
    73   36  115 1    
    74   37   38 am   BACKBONE|DICT|INTERRES
    75   37  116 1    
    76   38   39 2    
    77   38   40 1    
    78   40   41 1    
    79   40   42 1    
    80   40  117 1    
    81   41  118 1    
    82   41  119 1    
    83   41  120 1    
    84   42   43 am   BACKBONE|DICT|INTERRES
    85   42  121 1    
    86   43   44 2    
    87   43   45 1    
    88   45   46 1    
    89   45   47 1    
    90   45  122 1    
    91   46  123 1    
    92   46  124 1    
    93   46  125 1    
    94   47   48 am   BACKBONE|DICT|INTERRES
    95   47  126 1    
    96   48   49 2    
    97   48   50 1    
    98   50   51 1    
    99   50   52 1    
   100   50  127 1    
   101   51  128 1    
   102   51  129 1    
   103   51  130 1    
   104   52   53 am   BACKBONE|DICT|INTERRES
   105   52  131 1    
   106   53   54 2    
   107   53   55 1    
   108   55   56 1    
   109   55   59 1    
   110   55  132 1    
   111   56   57 1    
   112   56  133 1    
   113   56  134 1    
   114   57   58 1    
   115   58  135 1    
   116   58  136 1    
   117   59   60 am   BACKBONE|DICT|INTERRES
   118   59  137 1    
   119   60   61 2    
   120   60   62 1    
   121   62   63 1    
   122   62   64 1    
   123   62  138 1    
   124   63  139 1    
   125   63  140 1    
   126   63  141 1    
   127   64   65 am   BACKBONE|DICT|INTERRES
   128   64  142 1    
   129   65   66 2    
   130   65   67 1    
   131   67   68 1    
   132   67   69 1    
   133   67  143 1    
   134   68  144 1    
   135   68  145 1    
   136   68  146 1    
   137   69   70 am   BACKBONE|DICT|INTERRES
   138   69  147 1    
   139   70   71 2    
   140   70   72 1    
   141   72   73 1    
   142   72   74 1    
   143   72  148 1    
   144   73  149 1    
   145   73  150 1    
   146   73  151 1    
   147   74   75 am   BACKBONE|DICT|INTERRES
   148   74  152 1    
   149   75   76 2    
   150   75   77 1    
   151   77   78 1    
   152   77   79 1    
   153   77  153 1    
   154   78  154 1    
   155   78  155 1    
   156   78  156 1    
   157   79   80 am   BACKBONE|DICT|INTERRES
   158   79  157 1    
   159   80   81 2    
@<TRIPOS>SUBSTRUCTURE
     1 UNK         1 GROUP             0       ****    0 ROOT    
