@<TRIPOS>MOLECULE
3R207
157   159    1
SMALL
USER_CHARGES


@<TRIPOS>ATOM
      1 CA        -45.1378  -29.9968    7.0745 C.3       0 UNK        -0.1975 
      2 C         -46.3048  -29.1083    6.6720 C.2       0 UNK         0.4852 
      3 O         -46.2934  -28.5424    5.5773 O.2       0 UNK        -0.5216 
      4 N         -47.3066  -28.9789    7.5531 N.am      1 UNK        -0.4461 
      5 CA        -48.5088  -28.1529    7.3926 C.3       1 UNK         0.0864 
      6 C6        -49.4141  -28.2406    8.6442 C.3       14 UNK        -0.0898 
      7 S7        -50.3163  -29.8211    8.7367 S.3       14 UNK        -0.2598 
      8 C8        -51.7422  -29.5074    7.6384 C.3       14 UNK         0.0286 
      9 C9        -52.5570  -28.2974    8.0746 C.ar      14 UNK        -0.0844 
     10 C10       -52.4446  -27.0834    7.3897 C.ar      14 UNK        -0.0881 
     11 C11       -53.1468  -25.9568    7.8248 C.ar      14 UNK        -0.0643 
     12 C12       -53.9972  -26.0630    8.9308 C.ar      14 UNK        -0.0930 
     13 C13       -54.1423  -27.2779    9.6105 C.ar      14 UNK        -0.0827 
     14 C14       -53.4074  -28.3880    9.1784 C.ar      14 UNK        -0.1249 
     15 C15       -55.0583  -27.3496   10.8313 C.3       14 UNK         0.0141 
     16 S16       -56.1021  -28.8432   10.9097 S.3       14 UNK        -0.2313 
     17 C17       -55.0156  -30.0218   11.7875 C.3       14 UNK        -0.0915 
     18 CA        -55.6368  -30.5460   13.1097 C.3       13 UNK         0.0968 
     19 C         -54.8397  -31.7496   13.6963 C.2       13 UNK         0.5732 
     20 N         -54.5899  -31.8274   14.9985 N.am      13 UNK        -0.7310 
     21 O         -54.4527  -32.6519   12.9572 O.2       13 UNK        -0.5035 
     22 N         -55.8435  -29.4628   14.0848 N.am      13 UNK        -0.4233 
     23 C         -56.9503  -29.3067   14.8221 C.2       13 UNK         0.4989 
     24 O         -57.9616  -30.0002   14.6938 O.2       13 UNK        -0.4996 
     25 CA        -56.9158  -28.1981   15.8953 C.3       12 UNK         0.0216 
     26 CB        -58.0660  -28.3164   16.9178 C.3       12 UNK        -0.1964 
     27 N         -55.6271  -28.0934   16.5919 N.am      12 UNK        -0.4276 
     28 C         -54.9712  -29.0622   17.2531 C.2       12 UNK         0.5020 
     29 O         -55.3937  -30.2139   17.3624 O.2       12 UNK        -0.5489 
     30 CA        -53.5966  -28.7179   17.8611 C.3       11 UNK         0.0294 
     31 CB        -52.5286  -29.7307   17.4092 C.3       11 UNK        -0.2019 
     32 N         -53.1507  -27.3754   17.4878 N.am      11 UNK        -0.4493 
     33 C         -53.3185  -26.2658   18.2200 C.2       11 UNK         0.4932 
     34 O         -53.7869  -26.2580   19.3581 O.2       11 UNK        -0.5029 
     35 CA        -52.9319  -24.9317   17.5531 C.3       10 UNK         0.0280 
     36 CB        -51.5267  -24.4953   17.9958 C.3       10 UNK        -0.1976 
     37 N         -52.9957  -24.9903   16.0869 N.am      10 UNK        -0.4242 
     38 C         -54.1406  -25.1043   15.3924 C.2       10 UNK         0.5072 
     39 O         -55.2527  -25.1100   15.9197 O.2       10 UNK        -0.5224 
     40 CA        -54.0459  -25.3314   13.8732 C.3       9 UNK         0.0343 
     41 CB        -54.1614  -24.0017   13.1141 C.3       9 UNK        -0.2003 
     42 N         -52.8211  -26.0273   13.4707 N.am      9 UNK        -0.4272 
     43 C         -52.5143  -27.2866   13.8235 C.2       9 UNK         0.4988 
     44 O         -53.3019  -28.0247   14.4167 O.2       9 UNK        -0.5108 
     45 CA        -51.0984  -27.8115   13.5081 C.3       8 UNK         0.0248 
     46 CB        -51.1435  -28.8057   12.3376 C.3       8 UNK        -0.2001 
     47 N         -50.1135  -26.7675   13.2090 N.am      8 UNK        -0.4140 
     48 C         -49.7668  -25.7552   14.0185 C.2       8 UNK         0.5028 
     49 O         -50.1932  -25.6236   15.1659 O.2       8 UNK        -0.5428 
     50 CA        -48.8602  -24.6623   13.4208 C.3       7 UNK         0.0264 
     51 CB        -47.3961  -24.9120   13.8139 C.3       7 UNK        -0.1988 
     52 N         -48.9637  -24.5145   11.9599 N.am      7 UNK        -0.4454 
     53 C         -50.1023  -24.2642   11.2870 C.2       7 UNK         0.5027 
     54 O         -51.1915  -24.1282   11.8463 O.2       7 UNK        -0.5083 
     55 CA        -50.0250  -24.2215    9.7438 C.3       6 UNK         0.0844 
     56 C56       -51.2624  -23.5556    9.0794 C.3       14 UNK        -0.0967 
     57 S57       -51.3297  -23.9016    7.2872 S.3       14 UNK        -0.2604 
     58 C58       -52.9925  -24.6291    7.0926 C.3       14 UNK         0.0134 
     59 N         -48.7425  -23.6964    9.2637 N.am      6 UNK        -0.4116 
     60 C         -48.2631  -22.4582    9.4539 C.2       5 UNK         0.5034 
     61 O         -48.8892  -21.5652   10.0276 O.2       5 UNK        -0.5045 
     62 CA        -46.8429  -22.1665    8.9240 C.3       5 UNK         0.0224 
     63 CB        -46.1341  -21.0531    9.7246 C.3       5 UNK        -0.1978 
     64 N         -45.9758  -23.3493    8.8233 N.am      5 UNK        -0.4737 
     65 C         -45.6101  -24.1873    9.8083 C.2       4 UNK         0.5027 
     66 O         -46.0082  -24.0805   10.9678 O.2       4 UNK        -0.5211 
     67 CA        -44.6844  -25.3626    9.4325 C.3       4 UNK         0.0297 
     68 CB        -45.0639  -26.6479   10.1923 C.3       4 UNK        -0.1993 
     69 N         -44.7462  -25.6328    7.9962 N.am      4 UNK        -0.4486 
     70 C         -43.8071  -25.3208    7.0928 C.2       3 UNK         0.4961 
     71 O         -42.7024  -24.8628    7.3841 O.2       3 UNK        -0.5105 
     72 CA        -44.1665  -25.5218    5.6066 C.3       3 UNK         0.0299 
     73 CB        -43.4510  -26.7560    5.0350 C.3       3 UNK        -0.1972 
     74 N         -45.6117  -25.6346    5.3717 N.am      3 UNK        -0.4305 
     75 C         -46.4702  -24.6057    5.4665 C.2       2 UNK         0.5006 
     76 O         -46.1178  -23.4487    5.6966 O.2       2 UNK        -0.5106 
     77 CA        -47.9754  -24.9160    5.3606 C.3       2 UNK         0.0296 
     78 CB        -48.4646  -24.7437    3.9145 C.3       2 UNK        -0.2002 
     79 N         -48.3410  -26.2505    5.8451 N.am      2 UNK        -0.4032 
     80 C         -48.1469  -26.6859    7.0976 C.2       1 UNK         0.5000 
     81 O         -47.6606  -25.9930    7.9929 O.2       1 UNK        -0.5238 
     82 H82       -45.3640  -30.5871    7.9623 H         1 UNK         0.0889 
     83 H83       -44.2585  -29.3890    7.2853 H         1 UNK         0.0889 
     84 H84       -44.8927  -30.6846    6.2656 H         1 UNK         0.0889 
     85 H85       -47.2512  -29.4784    8.4289 H         1 UNK         0.3028 
     86 H86       -49.0590  -28.5399    6.5330 H         1 UNK         0.0864 
     87 H87       -50.1336  -27.4251    8.6793 H         1 UNK         0.0720 
     88 H88       -48.8203  -28.1296    9.5536 H         1 UNK         0.0720 
     89 H89       -52.3824  -30.3908    7.6330 H         1 UNK         0.0814 
     90 H90       -51.3899  -29.3853    6.6133 H         1 UNK         0.0814 
     91 H91       -51.7871  -27.0018    6.5351 H         1 UNK         0.1469 
     92 H92       -54.5444  -25.1928    9.2668 H         1 UNK         0.1381 
     93 H93       -53.4802  -29.3290    9.7018 H         1 UNK         0.1206 
     94 H94       -54.4507  -27.2904   11.7287 H         1 UNK         0.0813 
     95 H95       -55.7207  -26.4831   10.8545 H         1 UNK         0.0813 
     96 H96       -54.8261  -30.8452   11.0968 H         1 UNK         0.0638 
     97 H97       -54.0475  -29.5638   11.9873 H         1 UNK         0.0638 
     98 H98       -56.6051  -30.9728   12.8434 H         1 UNK         0.0568 
     99 H99       -54.9454  -31.1384   15.6520 H         1 UNK         0.3450 
    100 H100      -54.0800  -32.6232   15.3459 H         1 UNK         0.3450 
    101 H101      -55.0287  -28.8867   14.2779 H         1 UNK         0.2987 
    102 H102      -57.0484  -27.2581   15.3577 H         1 UNK         0.0766 
    103 H103      -58.0207  -29.2566   17.4686 H         1 UNK         0.0798 
    104 H104      -58.0374  -27.5020   17.6417 H         1 UNK         0.0798 
    105 H105      -59.0375  -28.2738   16.4238 H         1 UNK         0.0798 
    106 H106      -55.1973  -27.1773   16.5498 H         1 UNK         0.3198 
    107 H107      -53.6962  -28.7883   18.9463 H         1 UNK         0.0843 
    108 H108      -52.7830  -30.7402   17.7347 H         1 UNK         0.0831 
    109 H109      -51.5522  -29.4939   17.8320 H         1 UNK         0.0831 
    110 H110      -52.4277  -29.7567   16.3235 H         1 UNK         0.0831 
    111 H111      -52.7797  -27.2823   16.5514 H         1 UNK         0.3133 
    112 H112      -53.6428  -24.1744   17.8906 H         1 UNK         0.0566 
    113 H113      -51.2404  -23.5480   17.5387 H         1 UNK         0.0814 
    114 H114      -51.4850  -24.3595   19.0773 H         1 UNK         0.0814 
    115 H115      -50.7711  -25.2368   17.7338 H         1 UNK         0.0814 
    116 H116      -52.1066  -25.0426   15.5974 H         1 UNK         0.3091 
    117 H117      -54.8959  -25.9556   13.5917 H         1 UNK         0.0702 
    118 H118      -54.1480  -24.1588   12.0352 H         1 UNK         0.0785 
    119 H119      -53.3444  -23.3234   13.3632 H         1 UNK         0.0785 
    120 H120      -55.0950  -23.4927   13.3573 H         1 UNK         0.0785 
    121 H121      -52.1386  -25.4730   12.9611 H         1 UNK         0.2998 
    122 H122      -50.7491  -28.3416   14.3962 H         1 UNK         0.0697 
    123 H123      -51.5258  -28.3421   11.4271 H         1 UNK         0.0825 
    124 H124      -51.7876  -29.6538   12.5717 H         1 UNK         0.0825 
    125 H125      -50.1557  -29.2108   12.1171 H         1 UNK         0.0825 
    126 H126      -49.7083  -26.7835   12.2854 H         1 UNK         0.3029 
    127 H127      -49.1749  -23.7151   13.8636 H         1 UNK         0.0897 
    128 H128      -46.7662  -24.0628   13.5488 H         1 UNK         0.0792 
    129 H129      -47.2971  -25.0592   14.8904 H         1 UNK         0.0792 
    130 H130      -46.9903  -25.7972   13.3225 H         1 UNK         0.0792 
    131 H131      -48.0909  -24.5560   11.4440 H         1 UNK         0.3086 
    132 H132      -50.0342  -25.2701    9.4495 H         1 UNK         0.0583 
    133 H133      -52.1866  -23.9119    9.5359 H         1 UNK         0.1020 
    134 H134      -51.2571  -22.4761    9.2346 H         1 UNK         0.1020 
    135 H135      -53.7381  -23.9080    7.4316 H         1 UNK         0.0694 
    136 H136      -53.1829  -24.7861    6.0300 H         1 UNK         0.0694 
    137 H137      -48.1568  -24.3768    8.7852 H         1 UNK         0.2989 
    138 H138      -46.9793  -21.8039    7.9037 H         1 UNK         0.1055 
    139 H139      -45.1427  -20.8447    9.3225 H         1 UNK         0.0806 
    140 H140      -46.0205  -21.3223   10.7754 H         1 UNK         0.0806 
    141 H141      -46.6979  -20.1202    9.6870 H         1 UNK         0.0806 
    142 H142      -45.6332  -23.5444    7.8903 H         1 UNK         0.3061 
    143 H143      -43.6714  -25.0787    9.7240 H         1 UNK         0.0734 
    144 H144      -44.9618  -26.5116   11.2697 H         1 UNK         0.0832 
    145 H145      -46.0955  -26.9430    9.9977 H         1 UNK         0.0832 
    146 H146      -44.4184  -27.4798    9.9106 H         1 UNK         0.0832 
    147 H147      -45.6508  -25.9538    7.6683 H         1 UNK         0.3156 
    148 H148      -43.8044  -24.6458    5.0640 H         1 UNK         0.0589 
    149 H149      -43.7316  -27.6683    5.5600 H         1 UNK         0.0808 
    150 H150      -43.6776  -26.8936    3.9777 H         1 UNK         0.0808 
    151 H151      -42.3685  -26.6529    5.1230 H         1 UNK         0.0808 
    152 H152      -45.9746  -26.5720    5.2200 H         1 UNK         0.3098 
    153 H153      -48.4982  -24.1882    5.9848 H         1 UNK         0.0720 
    154 H154      -49.5465  -24.8600    3.8462 H         1 UNK         0.0791 
    155 H155      -48.0033  -25.4680    3.2420 H         1 UNK         0.0791 
    156 H156      -48.2240  -23.7485    3.5375 H         1 UNK         0.0791 
    157 H157      -48.7012  -26.8953    5.1562 H         1 UNK         0.3028 
@<TRIPOS>BOND
     1    1    2 1    
     2    1   82 1    
     3    1   83 1    
     4    1   84 1    
     5    2    3 2    
     6    2    4 am   BACKBONE|DICT|INTERRES
     7    4    5 1    
     8    4   85 1    
     9    5    6 1    
    10    5   80 1    
    11    5   86 1    
    12    6    7 1    
    13    6   87 1    
    14    6   88 1    
    15    7    8 1    
    16    8    9 1    
    17    8   89 1    
    18    8   90 1    
    19    9   10 ar   
    20    9   14 ar   
    21   10   11 ar   
    22   10   91 1    
    23   11   12 ar   
    24   11   58 1    
    25   12   13 ar   
    26   12   92 1    
    27   13   14 ar   
    28   13   15 1    
    29   14   93 1    
    30   15   16 1    
    31   15   94 1    
    32   15   95 1    
    33   16   17 1    
    34   17   18 1    
    35   17   96 1    
    36   17   97 1    
    37   18   19 1    
    38   18   22 1    
    39   18   98 1    
    40   19   20 am   BACKBONE|DICT|INTERRES
    41   19   21 2    
    42   20   99 1    
    43   20  100 1    
    44   22   23 am   BACKBONE|DICT|INTERRES
    45   22  101 1    
    46   23   24 2    
    47   23   25 1    
    48   25   26 1    
    49   25   27 1    
    50   25  102 1    
    51   26  103 1    
    52   26  104 1    
    53   26  105 1    
    54   27   28 am   BACKBONE|DICT|INTERRES
    55   27  106 1    
    56   28   29 2    
    57   28   30 1    
    58   30   31 1    
    59   30   32 1    
    60   30  107 1    
    61   31  108 1    
    62   31  109 1    
    63   31  110 1    
    64   32   33 am   BACKBONE|DICT|INTERRES
    65   32  111 1    
    66   33   34 2    
    67   33   35 1    
    68   35   36 1    
    69   35   37 1    
    70   35  112 1    
    71   36  113 1    
    72   36  114 1    
    73   36  115 1    
    74   37   38 am   BACKBONE|DICT|INTERRES
    75   37  116 1    
    76   38   39 2    
    77   38   40 1    
    78   40   41 1    
    79   40   42 1    
    80   40  117 1    
    81   41  118 1    
    82   41  119 1    
    83   41  120 1    
    84   42   43 am   BACKBONE|DICT|INTERRES
    85   42  121 1    
    86   43   44 2    
    87   43   45 1    
    88   45   46 1    
    89   45   47 1    
    90   45  122 1    
    91   46  123 1    
    92   46  124 1    
    93   46  125 1    
    94   47   48 am   BACKBONE|DICT|INTERRES
    95   47  126 1    
    96   48   49 2    
    97   48   50 1    
    98   50   51 1    
    99   50   52 1    
   100   50  127 1    
   101   51  128 1    
   102   51  129 1    
   103   51  130 1    
   104   52   53 am   BACKBONE|DICT|INTERRES
   105   52  131 1    
   106   53   54 2    
   107   53   55 1    
   108   55   56 1    
   109   55   59 1    
   110   55  132 1    
   111   56   57 1    
   112   56  133 1    
   113   56  134 1    
   114   57   58 1    
   115   58  135 1    
   116   58  136 1    
   117   59   60 am   BACKBONE|DICT|INTERRES
   118   59  137 1    
   119   60   61 2    
   120   60   62 1    
   121   62   63 1    
   122   62   64 1    
   123   62  138 1    
   124   63  139 1    
   125   63  140 1    
   126   63  141 1    
   127   64   65 am   BACKBONE|DICT|INTERRES
   128   64  142 1    
   129   65   66 2    
   130   65   67 1    
   131   67   68 1    
   132   67   69 1    
   133   67  143 1    
   134   68  144 1    
   135   68  145 1    
   136   68  146 1    
   137   69   70 am   BACKBONE|DICT|INTERRES
   138   69  147 1    
   139   70   71 2    
   140   70   72 1    
   141   72   73 1    
   142   72   74 1    
   143   72  148 1    
   144   73  149 1    
   145   73  150 1    
   146   73  151 1    
   147   74   75 am   BACKBONE|DICT|INTERRES
   148   74  152 1    
   149   75   76 2    
   150   75   77 1    
   151   77   78 1    
   152   77   79 1    
   153   77  153 1    
   154   78  154 1    
   155   78  155 1    
   156   78  156 1    
   157   79   80 am   BACKBONE|DICT|INTERRES
   158   79  157 1    
   159   80   81 2    
@<TRIPOS>SUBSTRUCTURE
     1 UNK         1 GROUP             0       ****    0 ROOT    
