@<TRIPOS>MOLECULE
3R207
157   159    1
SMALL
USER_CHARGES


@<TRIPOS>ATOM
      1 CA        -47.4718  -31.3310    8.1157 C.3       0 UNK        -0.1975 
      2 C         -48.2480  -30.2614    7.3622 C.2       0 UNK         0.4852 
      3 O         -48.6813  -29.2840    7.9706 O.2       0 UNK        -0.5216 
      4 N         -48.4152  -30.4340    6.0430 N.am      1 UNK        -0.4461 
      5 CA        -49.1034  -29.5361    5.1034 C.3       1 UNK         0.0864 
      6 C6        -50.5758  -29.2407    5.4967 C.3       14 UNK        -0.0898 
      7 S7        -51.5929  -28.6395    4.1034 S.3       14 UNK        -0.2598 
      8 C8        -53.2752  -29.1587    4.6028 C.3       14 UNK         0.0286 
      9 C9        -53.6336  -28.7814    6.0386 C.ar      14 UNK        -0.0844 
     10 C10       -53.3297  -27.5117    6.5445 C.ar      14 UNK        -0.0881 
     11 C11       -53.5691  -27.2060    7.8861 C.ar      14 UNK        -0.0643 
     12 C12       -54.1736  -28.1573    8.7082 C.ar      14 UNK        -0.0930 
     13 C13       -54.5172  -29.4156    8.2118 C.ar      14 UNK        -0.0827 
     14 C14       -54.2429  -29.7243    6.8756 C.ar      14 UNK        -0.1249 
     15 C15       -55.1254  -30.4488    9.1479 C.3       14 UNK         0.0141 
     16 S16       -56.7607  -29.9314    9.7609 S.3       14 UNK        -0.2313 
     17 C17       -56.9892  -31.0982   11.1456 C.3       14 UNK        -0.0915 
     18 CA        -57.1153  -30.4024   12.5362 C.3       13 UNK         0.0968 
     19 C         -57.4401  -31.4198   13.6743 C.2       13 UNK         0.5732 
     20 N         -56.8985  -31.2831   14.8797 N.am      13 UNK        -0.7310 
     21 O         -58.2320  -32.3383   13.4744 O.2       13 UNK        -0.5035 
     22 N         -56.0200  -29.4652   12.8502 N.am      13 UNK        -0.4233 
     23 C         -54.7190  -29.7657   12.9599 C.2       13 UNK         0.4989 
     24 O         -54.2366  -30.8700   12.7082 O.2       13 UNK        -0.4996 
     25 CA        -53.7951  -28.6488   13.4796 C.3       12 UNK         0.0216 
     26 CB        -53.2429  -27.8011   12.3242 C.3       12 UNK        -0.1964 
     27 N         -54.4094  -27.7541   14.4664 N.am      12 UNK        -0.4276 
     28 C         -54.9136  -28.1171   15.6534 C.2       12 UNK         0.5020 
     29 O         -55.0224  -29.2893   16.0175 O.2       12 UNK        -0.5489 
     30 CA        -55.3351  -26.9690   16.5907 C.3       11 UNK         0.0294 
     31 CB        -55.7817  -27.4683   17.9772 C.3       11 UNK        -0.2019 
     32 N         -54.2313  -26.0218   16.7612 N.am      11 UNK        -0.4493 
     33 C         -53.9556  -24.9911   15.9544 C.2       11 UNK         0.4932 
     34 O         -54.6528  -24.6830   14.9879 O.2       11 UNK        -0.5029 
     35 CA        -52.6511  -24.2244   16.2258 C.3       10 UNK         0.0280 
     36 CB        -52.6299  -23.5703   17.6221 C.3       10 UNK        -0.1976 
     37 N         -51.4610  -25.0474   15.9787 N.am      10 UNK        -0.4242 
     38 C         -51.0415  -26.1345   16.6445 C.2       10 UNK         0.5072 
     39 O         -51.5928  -26.5842   17.6511 O.2       10 UNK        -0.5224 
     40 CA        -49.8101  -26.8629   16.0821 C.3       9 UNK         0.0343 
     41 CB        -50.2318  -27.8676   14.9991 C.3       9 UNK        -0.2003 
     42 N         -48.7976  -25.9545   15.5397 N.am      9 UNK        -0.4272 
     43 C         -48.0110  -25.1702   16.2908 C.2       9 UNK         0.4988 
     44 O         -48.0425  -25.1441   17.5219 O.2       9 UNK        -0.5108 
     45 CA        -47.0146  -24.2639   15.5481 C.3       8 UNK         0.0248 
     46 CB        -45.7853  -25.0664   15.0922 C.3       8 UNK        -0.2001 
     47 N         -47.6132  -23.5742   14.4029 N.am      8 UNK        -0.4140 
     48 C         -48.5656  -22.6345   14.5003 C.2       8 UNK         0.5028 
     49 O         -49.0064  -22.2110   15.5695 O.2       8 UNK        -0.5428 
     50 CA        -49.1392  -22.0785   13.1859 C.3       7 UNK         0.0264 
     51 CB        -48.2311  -20.9746   12.6209 C.3       7 UNK        -0.1988 
     52 N         -49.3584  -23.1062   12.1653 N.am      7 UNK        -0.4454 
     53 C         -50.2051  -24.1394   12.2913 C.2       7 UNK         0.5027 
     54 O         -50.9098  -24.3316   13.2821 O.2       7 UNK        -0.5083 
     55 CA        -50.2396  -25.1582   11.1359 C.3       6 UNK         0.0844 
     56 C56       -51.0547  -24.6020    9.9426 C.3       14 UNK        -0.0967 
     57 S57       -51.3094  -25.8645    8.6550 S.3       14 UNK        -0.2604 
     58 C58       -53.1189  -25.8762    8.4656 C.3       14 UNK         0.0134 
     59 N         -48.8892  -25.5937   10.7604 N.am      6 UNK        -0.4116 
     60 C         -48.0136  -26.1807   11.5914 C.2       5 UNK         0.5034 
     61 O         -48.2672  -26.4894   12.7556 O.2       5 UNK        -0.5045 
     62 CA        -46.5878  -26.3936   11.0630 C.3       5 UNK         0.0224 
     63 CB        -46.4828  -27.6785   10.2272 C.3       5 UNK        -0.1978 
     64 N         -46.1235  -25.2437   10.2848 N.am      5 UNK        -0.4737 
     65 C         -45.8283  -24.0494   10.8178 C.2       4 UNK         0.5027 
     66 O         -45.8699  -23.8109   12.0241 O.2       4 UNK        -0.5211 
     67 CA        -45.4664  -22.9214    9.8374 C.3       4 UNK         0.0297 
     68 CB        -43.9810  -22.9967    9.4508 C.3       4 UNK        -0.1993 
     69 N         -46.2926  -22.9380    8.6278 N.am      4 UNK        -0.4486 
     70 C         -47.6139  -22.7126    8.6125 C.2       3 UNK         0.4961 
     71 O         -48.2695  -22.4160    9.6107 O.2       3 UNK        -0.5105 
     72 CA        -48.3353  -22.8893    7.2652 C.3       3 UNK         0.0299 
     73 CB        -48.3209  -21.5730    6.4723 C.3       3 UNK        -0.1972 
     74 N         -47.7984  -23.9728    6.4327 N.am      3 UNK        -0.4305 
     75 C         -47.7363  -25.2610    6.7974 C.2       2 UNK         0.5006 
     76 O         -48.0445  -25.6757    7.9156 O.2       2 UNK        -0.5106 
     77 CA        -47.1861  -26.2418    5.7607 C.3       2 UNK         0.0296 
     78 CB        -45.6952  -26.5217    6.0166 C.3       2 UNK        -0.2002 
     79 N         -47.9392  -27.4899    5.8446 N.am      2 UNK        -0.4032 
     80 C         -48.2905  -28.2557    4.8050 C.2       1 UNK         0.5000 
     81 O         -47.9724  -28.0059    3.6400 O.2       1 UNK        -0.5238 
     82 H82       -46.5981  -30.8902    8.5951 H         1 UNK         0.0889 
     83 H83       -47.1318  -32.1302    7.4574 H         1 UNK         0.0889 
     84 H84       -48.0990  -31.7719    8.8900 H         1 UNK         0.0889 
     85 H85       -48.0055  -31.2515    5.6117 H         1 UNK         0.3028 
     86 H86       -49.1321  -30.0998    4.1692 H         1 UNK         0.0864 
     87 H87       -51.0384  -30.1530    5.8767 H         1 UNK         0.0720 
     88 H88       -50.6293  -28.5166    6.3118 H         1 UNK         0.0720 
     89 H89       -53.3540  -30.2378    4.4615 H         1 UNK         0.0814 
     90 H90       -54.0009  -28.7054    3.9265 H         1 UNK         0.0814 
     91 H91       -52.8489  -26.7785    5.9116 H         1 UNK         0.1469 
     92 H92       -54.3684  -27.9285    9.7440 H         1 UNK         0.1381 
     93 H93       -54.4825  -30.7075    6.4937 H         1 UNK         0.1206 
     94 H94       -54.4461  -30.5947    9.9885 H         1 UNK         0.0813 
     95 H95       -55.2201  -31.4171    8.6544 H         1 UNK         0.0813 
     96 H96       -56.1796  -31.8293   11.1549 H         1 UNK         0.0638 
     97 H97       -57.8948  -31.6669   10.9278 H         1 UNK         0.0638 
     98 H98       -58.0042  -29.7729   12.4871 H         1 UNK         0.0568 
     99 H99       -57.1386  -31.9484   15.5967 H         1 UNK         0.3450 
    100 H100      -56.2383  -30.5415   15.0901 H         1 UNK         0.3450 
    101 H101      -56.3099  -28.5299   13.0933 H         1 UNK         0.2987 
    102 H102      -52.9534  -29.1399   13.9715 H         1 UNK         0.0766 
    103 H103      -52.4913  -27.0972   12.6784 H         1 UNK         0.0798 
    104 H104      -54.0304  -27.2208   11.8437 H         1 UNK         0.0798 
    105 H105      -52.7709  -28.4254   11.5639 H         1 UNK         0.0798 
    106 H106      -54.3820  -26.7618   14.2634 H         1 UNK         0.3198 
    107 H107      -56.1848  -26.4629   16.1271 H         1 UNK         0.0843 
    108 H108      -54.9806  -28.0009   18.4915 H         1 UNK         0.0831 
    109 H109      -56.6274  -28.1523   17.8929 H         1 UNK         0.0831 
    110 H110      -56.0975  -26.6415   18.6136 H         1 UNK         0.0831 
    111 H111      -53.5145  -26.2720   17.4379 H         1 UNK         0.3133 
    112 H112      -52.6023  -23.4174   15.4929 H         1 UNK         0.0566 
    113 H113      -51.7281  -22.9734   17.7602 H         1 UNK         0.0814 
    114 H114      -53.4829  -22.9025   17.7493 H         1 UNK         0.0814 
    115 H115      -52.6705  -24.3021   18.4289 H         1 UNK         0.0814 
    116 H116      -50.9779  -24.8139   15.1136 H         1 UNK         0.3091 
    117 H117      -49.3573  -27.4240   16.9025 H         1 UNK         0.0702 
    118 H118      -49.3848  -28.4668   14.6646 H         1 UNK         0.0785 
    119 H119      -50.6467  -27.3643   14.1259 H         1 UNK         0.0785 
    120 H120      -50.9889  -28.5561   15.3766 H         1 UNK         0.0785 
    121 H121      -48.6698  -25.9619   14.5300 H         1 UNK         0.2998 
    122 H122      -46.6745  -23.5012   16.2517 H         1 UNK         0.0697 
    123 H123      -46.0491  -25.8296   14.3597 H         1 UNK         0.0825 
    124 H124      -45.3139  -25.5722   15.9359 H         1 UNK         0.0825 
    125 H125      -45.0335  -24.4177   14.6423 H         1 UNK         0.0825 
    126 H126      -47.2507  -23.8122   13.4842 H         1 UNK         0.3029 
    127 H127      -50.1103  -21.6349   13.4160 H         1 UNK         0.0897 
    128 H128      -48.6740  -20.5098   11.7397 H         1 UNK         0.0792 
    129 H129      -48.0691  -20.1861   13.3570 H         1 UNK         0.0792 
    130 H130      -47.2527  -21.3633   12.3363 H         1 UNK         0.0792 
    131 H131      -48.8470  -22.9939   11.2915 H         1 UNK         0.3086 
    132 H132      -50.7564  -26.0437   11.5091 H         1 UNK         0.0583 
    133 H133      -52.0238  -24.2328   10.2833 H         1 UNK         0.1020 
    134 H134      -50.5530  -23.7459    9.4918 H         1 UNK         0.1020 
    135 H135      -53.5972  -25.7072    9.4316 H         1 UNK         0.0694 
    136 H136      -53.4248  -25.0568    7.8137 H         1 UNK         0.0694 
    137 H137      -48.6132  -25.4414    9.7944 H         1 UNK         0.2989 
    138 H138      -45.9309  -26.5033   11.9287 H         1 UNK         0.1055 
    139 H139      -46.8081  -28.5456   10.8035 H         1 UNK         0.0806 
    140 H140      -45.4565  -27.8650    9.9114 H         1 UNK         0.0806 
    141 H141      -47.1048  -27.6345    9.3342 H         1 UNK         0.0806 
    142 H142      -46.1497  -25.3352    9.2789 H         1 UNK         0.3061 
    143 H143      -45.6385  -21.9716   10.3483 H         1 UNK         0.0734 
    144 H144      -43.6911  -22.1552    8.8214 H         1 UNK         0.0832 
    145 H145      -43.3471  -22.9681   10.3383 H         1 UNK         0.0832 
    146 H146      -43.7466  -23.9164    8.9133 H         1 UNK         0.0832 
    147 H147      -45.8360  -23.1715    7.7584 H         1 UNK         0.3156 
    148 H148      -49.3753  -23.1392    7.4834 H         1 UNK         0.0589 
    149 H149      -47.3095  -21.2840    6.1840 H         1 UNK         0.0808 
    150 H150      -48.9214  -21.6483    5.5656 H         1 UNK         0.0808 
    151 H151      -48.7362  -20.7566    7.0653 H         1 UNK         0.0808 
    152 H152      -47.5030  -23.7189    5.5006 H         1 UNK         0.3098 
    153 H153      -47.3062  -25.8017    4.7684 H         1 UNK         0.0720 
    154 H154      -45.2884  -27.2045    5.2705 H         1 UNK         0.0791 
    155 H155      -45.5324  -26.9668    6.9994 H         1 UNK         0.0791 
    156 H156      -45.1082  -25.6037    5.9697 H         1 UNK         0.0791 
    157 H157      -48.2530  -27.7596    6.7753 H         1 UNK         0.3028 
@<TRIPOS>BOND
     1    1    2 1    
     2    1   82 1    
     3    1   83 1    
     4    1   84 1    
     5    2    3 2    
     6    2    4 am   BACKBONE|DICT|INTERRES
     7    4    5 1    
     8    4   85 1    
     9    5    6 1    
    10    5   80 1    
    11    5   86 1    
    12    6    7 1    
    13    6   87 1    
    14    6   88 1    
    15    7    8 1    
    16    8    9 1    
    17    8   89 1    
    18    8   90 1    
    19    9   10 ar   
    20    9   14 ar   
    21   10   11 ar   
    22   10   91 1    
    23   11   12 ar   
    24   11   58 1    
    25   12   13 ar   
    26   12   92 1    
    27   13   14 ar   
    28   13   15 1    
    29   14   93 1    
    30   15   16 1    
    31   15   94 1    
    32   15   95 1    
    33   16   17 1    
    34   17   18 1    
    35   17   96 1    
    36   17   97 1    
    37   18   19 1    
    38   18   22 1    
    39   18   98 1    
    40   19   20 am   BACKBONE|DICT|INTERRES
    41   19   21 2    
    42   20   99 1    
    43   20  100 1    
    44   22   23 am   BACKBONE|DICT|INTERRES
    45   22  101 1    
    46   23   24 2    
    47   23   25 1    
    48   25   26 1    
    49   25   27 1    
    50   25  102 1    
    51   26  103 1    
    52   26  104 1    
    53   26  105 1    
    54   27   28 am   BACKBONE|DICT|INTERRES
    55   27  106 1    
    56   28   29 2    
    57   28   30 1    
    58   30   31 1    
    59   30   32 1    
    60   30  107 1    
    61   31  108 1    
    62   31  109 1    
    63   31  110 1    
    64   32   33 am   BACKBONE|DICT|INTERRES
    65   32  111 1    
    66   33   34 2    
    67   33   35 1    
    68   35   36 1    
    69   35   37 1    
    70   35  112 1    
    71   36  113 1    
    72   36  114 1    
    73   36  115 1    
    74   37   38 am   BACKBONE|DICT|INTERRES
    75   37  116 1    
    76   38   39 2    
    77   38   40 1    
    78   40   41 1    
    79   40   42 1    
    80   40  117 1    
    81   41  118 1    
    82   41  119 1    
    83   41  120 1    
    84   42   43 am   BACKBONE|DICT|INTERRES
    85   42  121 1    
    86   43   44 2    
    87   43   45 1    
    88   45   46 1    
    89   45   47 1    
    90   45  122 1    
    91   46  123 1    
    92   46  124 1    
    93   46  125 1    
    94   47   48 am   BACKBONE|DICT|INTERRES
    95   47  126 1    
    96   48   49 2    
    97   48   50 1    
    98   50   51 1    
    99   50   52 1    
   100   50  127 1    
   101   51  128 1    
   102   51  129 1    
   103   51  130 1    
   104   52   53 am   BACKBONE|DICT|INTERRES
   105   52  131 1    
   106   53   54 2    
   107   53   55 1    
   108   55   56 1    
   109   55   59 1    
   110   55  132 1    
   111   56   57 1    
   112   56  133 1    
   113   56  134 1    
   114   57   58 1    
   115   58  135 1    
   116   58  136 1    
   117   59   60 am   BACKBONE|DICT|INTERRES
   118   59  137 1    
   119   60   61 2    
   120   60   62 1    
   121   62   63 1    
   122   62   64 1    
   123   62  138 1    
   124   63  139 1    
   125   63  140 1    
   126   63  141 1    
   127   64   65 am   BACKBONE|DICT|INTERRES
   128   64  142 1    
   129   65   66 2    
   130   65   67 1    
   131   67   68 1    
   132   67   69 1    
   133   67  143 1    
   134   68  144 1    
   135   68  145 1    
   136   68  146 1    
   137   69   70 am   BACKBONE|DICT|INTERRES
   138   69  147 1    
   139   70   71 2    
   140   70   72 1    
   141   72   73 1    
   142   72   74 1    
   143   72  148 1    
   144   73  149 1    
   145   73  150 1    
   146   73  151 1    
   147   74   75 am   BACKBONE|DICT|INTERRES
   148   74  152 1    
   149   75   76 2    
   150   75   77 1    
   151   77   78 1    
   152   77   79 1    
   153   77  153 1    
   154   78  154 1    
   155   78  155 1    
   156   78  156 1    
   157   79   80 am   BACKBONE|DICT|INTERRES
   158   79  157 1    
   159   80   81 2    
@<TRIPOS>SUBSTRUCTURE
     1 UNK         1 GROUP             0       ****    0 ROOT    
