@<TRIPOS>MOLECULE
3R207
157   159    1
SMALL
USER_CHARGES


@<TRIPOS>ATOM
      1 CA        -44.8226  -29.3678    5.6076 C.3       0 UNK        -0.1975 
      2 C         -46.1913  -29.0741    6.2027 C.2       0 UNK         0.4852 
      3 O         -47.1978  -29.1540    5.4970 O.2       0 UNK        -0.5216 
      4 N         -46.2408  -28.7159    7.4930 N.am      1 UNK        -0.4461 
      5 CA        -47.4557  -28.3797    8.2439 C.3       1 UNK         0.0864 
      6 C6        -47.2166  -28.5897    9.7632 C.3       14 UNK        -0.0898 
      7 S7        -48.7257  -28.5464   10.7843 S.3       14 UNK        -0.2598 
      8 C8        -49.5800  -30.0822   10.2853 C.3       14 UNK         0.0286 
      9 C9        -51.0600  -29.8397   10.0093 C.ar      14 UNK        -0.0844 
     10 C10       -51.4630  -28.7807    9.1902 C.ar      14 UNK        -0.0881 
     11 C11       -52.8183  -28.5104    8.9806 C.ar      14 UNK        -0.0643 
     12 C12       -53.7726  -29.3558    9.5539 C.ar      14 UNK        -0.0930 
     13 C13       -53.3915  -30.4542   10.3372 C.ar      14 UNK        -0.0827 
     14 C14       -52.0301  -30.6761   10.5704 C.ar      14 UNK        -0.1249 
     15 C15       -54.4131  -31.4008   10.9730 C.3       14 UNK         0.0141 
     16 S16       -56.0254  -31.4745   10.1102 S.3       14 UNK        -0.2313 
     17 C17       -57.2202  -31.3522   11.4858 C.3       14 UNK        -0.0915 
     18 CA        -57.7580  -29.9026   11.6926 C.3       13 UNK         0.0968 
     19 C         -59.0065  -29.8449   12.6284 C.2       13 UNK         0.5732 
     20 N         -59.1766  -28.8158   13.4514 N.am      13 UNK        -0.7310 
     21 O         -59.8609  -30.7273   12.5822 O.2       13 UNK        -0.5035 
     22 N         -56.6937  -28.9378   12.0267 N.am      13 UNK        -0.4233 
     23 C         -55.9515  -28.9432   13.1418 C.2       13 UNK         0.4989 
     24 O         -56.0669  -29.7791   14.0405 O.2       13 UNK        -0.4996 
     25 CA        -54.8751  -27.8532   13.2833 C.3       12 UNK         0.0216 
     26 CB        -54.8850  -26.7708   12.1788 C.3       12 UNK        -0.1964 
     27 N         -54.9163  -27.2447   14.6143 N.am      12 UNK        -0.4276 
     28 C         -55.9193  -26.5283   15.1453 C.2       12 UNK         0.5020 
     29 O         -56.9738  -26.2826   14.5556 O.2       12 UNK        -0.5489 
     30 CA        -55.7319  -25.9959   16.5805 C.3       11 UNK         0.0294 
     31 CB        -56.6642  -26.7357   17.5544 C.3       11 UNK        -0.2019 
     32 N         -54.3553  -26.0981   17.0732 N.am      11 UNK        -0.4493 
     33 C         -53.3240  -25.3491   16.6594 C.2       11 UNK         0.4932 
     34 O         -53.4271  -24.4187   15.8600 O.2       11 UNK        -0.5029 
     35 CA        -51.9363  -25.7123   17.2182 C.3       10 UNK         0.0280 
     36 CB        -51.9804  -26.3501   18.6253 C.3       10 UNK        -0.1976 
     37 N         -51.1659  -26.5521   16.2932 N.am      10 UNK        -0.4242 
     38 C         -51.5076  -27.7528   15.7934 C.2       10 UNK         0.5072 
     39 O         -52.5816  -28.3053   16.0382 O.2       10 UNK        -0.5224 
     40 CA        -50.4981  -28.4735   14.8763 C.3       9 UNK         0.0343 
     41 CB        -51.1787  -29.0827   13.6392 C.3       9 UNK        -0.2003 
     42 N         -49.4196  -27.5913   14.4321 N.am      9 UNK        -0.4272 
     43 C         -48.1933  -27.5310   14.9720 C.2       9 UNK         0.4988 
     44 O         -47.7965  -28.2890   15.8574 O.2       9 UNK        -0.5108 
     45 CA        -47.2562  -26.4110   14.4741 C.3       8 UNK         0.0248 
     46 CB        -46.2288  -26.9589   13.4711 C.3       8 UNK        -0.2001 
     47 N         -47.9656  -25.2782   13.8717 N.am      8 UNK        -0.4140 
     48 C         -48.8212  -24.4776   14.5239 C.2       8 UNK         0.5028 
     49 O         -49.0412  -24.5579   15.7324 O.2       8 UNK        -0.5428 
     50 CA        -49.6130  -23.4663   13.6827 C.3       7 UNK         0.0264 
     51 CB        -48.9673  -22.0741   13.7586 C.3       7 UNK        -0.1988 
     52 N         -49.7527  -23.8707   12.2798 N.am      7 UNK        -0.4454 
     53 C         -50.5294  -24.8802   11.8480 C.2       7 UNK         0.5027 
     54 O         -51.1392  -25.6209   12.6203 O.2       7 UNK        -0.5083 
     55 CA        -50.6148  -25.1500   10.3247 C.3       6 UNK         0.0844 
     56 C56       -52.0740  -25.3958    9.8482 C.3       14 UNK        -0.0967 
     57 S57       -52.1554  -25.8921    8.0901 S.3       14 UNK        -0.2604 
     58 C58       -53.2879  -27.3270    8.1330 C.3       14 UNK         0.0134 
     59 N         -49.8822  -24.1629    9.5225 N.am      6 UNK        -0.4116 
     60 C         -50.1966  -22.8711    9.3384 C.2       5 UNK         0.5034 
     61 O         -51.2253  -22.3497    9.7704 O.2       5 UNK        -0.5045 
     62 CA        -49.1686  -22.0031    8.5830 C.3       5 UNK         0.0224 
     63 CB        -49.1809  -20.5347    9.0593 C.3       5 UNK        -0.1978 
     64 N         -47.7975  -22.5352    8.6105 N.am      5 UNK        -0.4737 
     65 C         -47.0379  -22.7939    9.6883 C.2       4 UNK         0.5027 
     66 O         -47.4269  -22.6163   10.8426 O.2       4 UNK        -0.5211 
     67 CA        -45.6437  -23.4045    9.4433 C.3       4 UNK         0.0297 
     68 CB        -45.2735  -24.4216   10.5400 C.3       4 UNK        -0.1993 
     69 N         -45.5949  -24.0775    8.1444 N.am      4 UNK        -0.4486 
     70 C         -44.9727  -23.6256    7.0462 C.2       3 UNK         0.4961 
     71 O         -44.2612  -22.6215    7.0261 O.2       3 UNK        -0.5105 
     72 CA        -45.2050  -24.4058    5.7347 C.3       3 UNK         0.0299 
     73 CB        -44.0435  -25.3800    5.4796 C.3       3 UNK        -0.1972 
     74 N         -46.4674  -25.1519    5.7103 N.am      3 UNK        -0.4305 
     75 C         -47.6935  -24.6111    5.7804 C.2       2 UNK         0.5006 
     76 O         -47.9054  -23.3996    5.7471 O.2       2 UNK        -0.5106 
     77 CA        -48.8742  -25.5745    6.0075 C.3       2 UNK         0.0296 
     78 CB        -49.5974  -25.8714    4.6855 C.3       2 UNK        -0.2002 
     79 N         -48.4846  -26.8383    6.6435 N.am      2 UNK        -0.4032 
     80 C         -47.9403  -26.9634    7.8625 C.2       1 UNK         0.5000 
     81 O         -47.7429  -26.0048    8.6132 O.2       1 UNK        -0.5238 
     82 H82       -44.0222  -29.2261    6.3337 H         1 UNK         0.0889 
     83 H83       -44.6321  -28.7097    4.7603 H         1 UNK         0.0889 
     84 H84       -44.7818  -30.3978    5.2545 H         1 UNK         0.0889 
     85 H85       -45.3786  -28.6525    8.0163 H         1 UNK         0.3028 
     86 H86       -48.2374  -29.0718    7.9273 H         1 UNK         0.0864 
     87 H87       -46.5179  -27.8447   10.1479 H         1 UNK         0.0720 
     88 H88       -46.7411  -29.5569    9.9349 H         1 UNK         0.0720 
     89 H89       -49.4508  -30.8167   11.0815 H         1 UNK         0.0814 
     90 H90       -49.1243  -30.5201    9.3980 H         1 UNK         0.0814 
     91 H91       -50.7137  -28.1468    8.7398 H         1 UNK         0.1469 
     92 H92       -54.8190  -29.1495    9.3820 H         1 UNK         0.1381 
     93 H93       -51.7245  -31.5044   11.1951 H         1 UNK         0.1206 
     94 H94       -54.5472  -31.1108   12.0138 H         1 UNK         0.0813 
     95 H95       -54.0071  -32.4132   10.9953 H         1 UNK         0.0813 
     96 H96       -58.0401  -32.0272   11.2352 H         1 UNK         0.0638 
     97 H97       -56.7827  -31.7503   12.4021 H         1 UNK         0.0638 
     98 H98       -58.1444  -29.5698   10.7288 H         1 UNK         0.0568 
     99 H99       -58.4838  -28.0843   13.5148 H         1 UNK         0.3450 
    100 H100      -59.9951  -28.7863   14.0379 H         1 UNK         0.3450 
    101 H101      -56.5501  -28.1972   11.3571 H         1 UNK         0.2987 
    102 H102      -53.9213  -28.3744   13.2180 H         1 UNK         0.0766 
    103 H103      -55.8321  -26.2325   12.1324 H         1 UNK         0.0798 
    104 H104      -54.0999  -26.0350   12.3556 H         1 UNK         0.0798 
    105 H105      -54.6975  -27.2026   11.1962 H         1 UNK         0.0798 
    106 H106      -54.1276  -27.4712   15.2156 H         1 UNK         0.3198 
    107 H107      -56.0122  -24.9403   16.5711 H         1 UNK         0.0843 
    108 H108      -57.7056  -26.6456   17.2419 H         1 UNK         0.0831 
    109 H109      -56.5944  -26.3258   18.5622 H         1 UNK         0.0831 
    110 H110      -56.4317  -27.8003   17.6051 H         1 UNK         0.0831 
    111 H111      -54.1548  -26.8654   17.6992 H         1 UNK         0.3133 
    112 H112      -51.3882  -24.7729   17.3060 H         1 UNK         0.0566 
    113 H113      -50.9767  -26.4374   19.0417 H         1 UNK         0.0814 
    114 H114      -52.5597  -25.7368   19.3170 H         1 UNK         0.0814 
    115 H115      -52.4179  -27.3488   18.6211 H         1 UNK         0.0814 
    116 H116      -50.2830  -26.1449   16.0022 H         1 UNK         0.3091 
    117 H117      -50.0874  -29.2975   15.4628 H         1 UNK         0.0702 
    118 H118      -50.4738  -29.6888   13.0725 H         1 UNK         0.0785 
    119 H119      -51.5681  -28.3153   12.9695 H         1 UNK         0.0785 
    120 H120      -52.0058  -29.7375   13.9158 H         1 UNK         0.0785 
    121 H121      -49.6746  -26.9201   13.7175 H         1 UNK         0.2998 
    122 H122      -46.7140  -26.0352   15.3443 H         1 UNK         0.0697 
    123 H123      -46.7061  -27.3123   12.5583 H         1 UNK         0.0825 
    124 H124      -45.6772  -27.7987   13.8959 H         1 UNK         0.0825 
    125 H125      -45.4971  -26.1991   13.1959 H         1 UNK         0.0825 
    126 H126      -47.8431  -25.1329   12.8801 H         1 UNK         0.3029 
    127 H127      -50.6155  -23.4008   14.1124 H         1 UNK         0.0897 
    128 H128      -49.5274  -21.3429   13.1755 H         1 UNK         0.0792 
    129 H129      -48.9386  -21.7154   14.7884 H         1 UNK         0.0792 
    130 H130      -47.9410  -22.0828   13.3901 H         1 UNK         0.0792 
    131 H131      -49.2100  -23.3404   11.6049 H         1 UNK         0.3086 
    132 H132      -50.0737  -26.0830   10.1774 H         1 UNK         0.0583 
    133 H133      -52.5318  -26.1787   10.4535 H         1 UNK         0.1020 
    134 H134      -52.6914  -24.5083    9.9932 H         1 UNK         0.1020 
    135 H135      -54.2592  -26.9776    8.4868 H         1 UNK         0.0694 
    136 H136      -53.4390  -27.6761    7.1109 H         1 UNK         0.0694 
    137 H137      -49.0084  -24.5064    9.1376 H         1 UNK         0.2989 
    138 H138      -49.4823  -22.0149    7.5379 H         1 UNK         0.1055 
    139 H139      -48.4603  -19.9323    8.5063 H         1 UNK         0.0806 
    140 H140      -48.9436  -20.4518   10.1205 H         1 UNK         0.0806 
    141 H141      -50.1610  -20.0801    8.9093 H         1 UNK         0.0806 
    142 H142      -47.4117  -22.7472    7.6968 H         1 UNK         0.3061 
    143 H143      -44.9235  -22.5848    9.4778 H         1 UNK         0.0734 
    144 H144      -45.2310  -23.9452   11.5204 H         1 UNK         0.0832 
    145 H145      -46.0017  -25.2312   10.6016 H         1 UNK         0.0832 
    146 H146      -44.2949  -24.8646   10.3556 H         1 UNK         0.0832 
    147 H147      -46.1971  -24.8917    8.0705 H         1 UNK         0.3156 
    148 H148      -45.2319  -23.6794    4.9198 H         1 UNK         0.0589 
    149 H149      -43.9755  -26.1422    6.2569 H         1 UNK         0.0808 
    150 H150      -44.1510  -25.8854    4.5196 H         1 UNK         0.0808 
    151 H151      -43.0894  -24.8513    5.4589 H         1 UNK         0.0808 
    152 H152      -46.3968  -26.1580    5.7159 H         1 UNK         0.3098 
    153 H153      -49.5759  -25.0709    6.6748 H         1 UNK         0.0720 
    154 H154      -50.4927  -26.4711    4.8521 H         1 UNK         0.0791 
    155 H155      -48.9566  -26.4089    3.9854 H         1 UNK         0.0791 
    156 H156      -49.9146  -24.9484    4.1977 H         1 UNK         0.0791 
    157 H157      -48.5160  -27.6700    6.0621 H         1 UNK         0.3028 
@<TRIPOS>BOND
     1    1    2 1    
     2    1   82 1    
     3    1   83 1    
     4    1   84 1    
     5    2    3 2    
     6    2    4 am   BACKBONE|DICT|INTERRES
     7    4    5 1    
     8    4   85 1    
     9    5    6 1    
    10    5   80 1    
    11    5   86 1    
    12    6    7 1    
    13    6   87 1    
    14    6   88 1    
    15    7    8 1    
    16    8    9 1    
    17    8   89 1    
    18    8   90 1    
    19    9   10 ar   
    20    9   14 ar   
    21   10   11 ar   
    22   10   91 1    
    23   11   12 ar   
    24   11   58 1    
    25   12   13 ar   
    26   12   92 1    
    27   13   14 ar   
    28   13   15 1    
    29   14   93 1    
    30   15   16 1    
    31   15   94 1    
    32   15   95 1    
    33   16   17 1    
    34   17   18 1    
    35   17   96 1    
    36   17   97 1    
    37   18   19 1    
    38   18   22 1    
    39   18   98 1    
    40   19   20 am   BACKBONE|DICT|INTERRES
    41   19   21 2    
    42   20   99 1    
    43   20  100 1    
    44   22   23 am   BACKBONE|DICT|INTERRES
    45   22  101 1    
    46   23   24 2    
    47   23   25 1    
    48   25   26 1    
    49   25   27 1    
    50   25  102 1    
    51   26  103 1    
    52   26  104 1    
    53   26  105 1    
    54   27   28 am   BACKBONE|DICT|INTERRES
    55   27  106 1    
    56   28   29 2    
    57   28   30 1    
    58   30   31 1    
    59   30   32 1    
    60   30  107 1    
    61   31  108 1    
    62   31  109 1    
    63   31  110 1    
    64   32   33 am   BACKBONE|DICT|INTERRES
    65   32  111 1    
    66   33   34 2    
    67   33   35 1    
    68   35   36 1    
    69   35   37 1    
    70   35  112 1    
    71   36  113 1    
    72   36  114 1    
    73   36  115 1    
    74   37   38 am   BACKBONE|DICT|INTERRES
    75   37  116 1    
    76   38   39 2    
    77   38   40 1    
    78   40   41 1    
    79   40   42 1    
    80   40  117 1    
    81   41  118 1    
    82   41  119 1    
    83   41  120 1    
    84   42   43 am   BACKBONE|DICT|INTERRES
    85   42  121 1    
    86   43   44 2    
    87   43   45 1    
    88   45   46 1    
    89   45   47 1    
    90   45  122 1    
    91   46  123 1    
    92   46  124 1    
    93   46  125 1    
    94   47   48 am   BACKBONE|DICT|INTERRES
    95   47  126 1    
    96   48   49 2    
    97   48   50 1    
    98   50   51 1    
    99   50   52 1    
   100   50  127 1    
   101   51  128 1    
   102   51  129 1    
   103   51  130 1    
   104   52   53 am   BACKBONE|DICT|INTERRES
   105   52  131 1    
   106   53   54 2    
   107   53   55 1    
   108   55   56 1    
   109   55   59 1    
   110   55  132 1    
   111   56   57 1    
   112   56  133 1    
   113   56  134 1    
   114   57   58 1    
   115   58  135 1    
   116   58  136 1    
   117   59   60 am   BACKBONE|DICT|INTERRES
   118   59  137 1    
   119   60   61 2    
   120   60   62 1    
   121   62   63 1    
   122   62   64 1    
   123   62  138 1    
   124   63  139 1    
   125   63  140 1    
   126   63  141 1    
   127   64   65 am   BACKBONE|DICT|INTERRES
   128   64  142 1    
   129   65   66 2    
   130   65   67 1    
   131   67   68 1    
   132   67   69 1    
   133   67  143 1    
   134   68  144 1    
   135   68  145 1    
   136   68  146 1    
   137   69   70 am   BACKBONE|DICT|INTERRES
   138   69  147 1    
   139   70   71 2    
   140   70   72 1    
   141   72   73 1    
   142   72   74 1    
   143   72  148 1    
   144   73  149 1    
   145   73  150 1    
   146   73  151 1    
   147   74   75 am   BACKBONE|DICT|INTERRES
   148   74  152 1    
   149   75   76 2    
   150   75   77 1    
   151   77   78 1    
   152   77   79 1    
   153   77  153 1    
   154   78  154 1    
   155   78  155 1    
   156   78  156 1    
   157   79   80 am   BACKBONE|DICT|INTERRES
   158   79  157 1    
   159   80   81 2    
@<TRIPOS>SUBSTRUCTURE
     1 UNK         1 GROUP             0       ****    0 ROOT    
