@<TRIPOS>MOLECULE
3R207
157   159    1
SMALL
USER_CHARGES


@<TRIPOS>ATOM
      1 CA        -46.5662  -31.4019    2.3767 C.3       0 UNK        -0.1975 
      2 C         -47.8179  -30.8853    3.0713 C.2       0 UNK         0.4852 
      3 O         -48.8967  -31.4494    2.8837 O.2       0 UNK        -0.5216 
      4 N         -47.6812  -29.8188    3.8676 N.am      1 UNK        -0.4461 
      5 CA        -48.7743  -29.1597    4.5859 C.3       1 UNK         0.0864 
      6 C6        -49.2187  -29.9377    5.8539 C.3       14 UNK        -0.0898 
      7 S7        -50.9298  -29.5389    6.3314 S.3       14 UNK        -0.2598 
      8 C8        -50.6616  -28.7493    7.9437 C.3       14 UNK         0.0286 
      9 C9        -51.8657  -27.9160    8.3399 C.ar      14 UNK        -0.0844 
     10 C10       -51.9103  -26.5670    7.9838 C.ar      14 UNK        -0.0881 
     11 C11       -52.9886  -25.7679    8.3692 C.ar      14 UNK        -0.0643 
     12 C12       -54.0420  -26.3350    9.0899 C.ar      14 UNK        -0.0930 
     13 C13       -54.0194  -27.6900    9.4330 C.ar      14 UNK        -0.0827 
     14 C14       -52.9248  -28.4777    9.0606 C.ar      14 UNK        -0.1249 
     15 C15       -55.1847  -28.2888   10.2036 C.3       14 UNK         0.0141 
     16 S16       -54.8978  -28.2085   11.9970 S.3       14 UNK        -0.2313 
     17 C17       -54.2995  -29.8985   12.3462 C.3       14 UNK        -0.0915 
     18 CA        -55.4052  -30.8025   12.9509 C.3       13 UNK         0.0968 
     19 C         -54.8819  -32.2506   13.1759 C.2       13 UNK         0.5732 
     20 N         -54.8113  -32.7521   14.4034 N.am      13 UNK        -0.7310 
     21 O         -54.5417  -32.9357   12.2142 O.2       13 UNK        -0.5035 
     22 N         -56.0275  -30.1821   14.1317 N.am      13 UNK        -0.4233 
     23 C         -57.2393  -30.4736   14.6113 C.2       13 UNK         0.4989 
     24 O         -57.9757  -31.3345   14.1281 O.2       13 UNK        -0.4996 
     25 CA        -57.7367  -29.6623   15.8222 C.3       12 UNK         0.0216 
     26 CB        -57.2508  -30.2898   17.1440 C.3       12 UNK        -0.1964 
     27 N         -57.4541  -28.2166   15.7729 N.am      12 UNK        -0.4276 
     28 C         -56.2754  -27.5814   15.8486 C.2       12 UNK         0.5020 
     29 O         -55.1851  -28.1566   15.9113 O.2       12 UNK        -0.5489 
     30 CA        -56.3349  -26.0460   15.8583 C.3       11 UNK         0.0294 
     31 CB        -57.0984  -25.5176   17.0904 C.3       11 UNK        -0.2019 
     32 N         -54.9765  -25.5104   15.8587 N.am      11 UNK        -0.4493 
     33 C         -54.6029  -24.2867   15.4719 C.2       11 UNK         0.4932 
     34 O         -55.3946  -23.4423   15.0510 O.2       11 UNK        -0.5029 
     35 CA        -53.1061  -23.9194   15.5555 C.3       10 UNK         0.0280 
     36 CB        -52.7710  -23.2593   16.9068 C.3       10 UNK        -0.1976 
     37 N         -52.1695  -25.0087   15.2443 N.am      10 UNK        -0.4242 
     38 C         -51.9478  -26.1486   15.9154 C.2       10 UNK         0.5072 
     39 O         -52.5091  -26.4536   16.9680 O.2       10 UNK        -0.5224 
     40 CA        -50.9515  -27.1306   15.2847 C.3       9 UNK         0.0343 
     41 CB        -51.5497  -27.7587   14.0170 C.3       9 UNK        -0.2003 
     42 N         -49.6667  -26.5042   14.9766 N.am      9 UNK        -0.4272 
     43 C         -48.7802  -26.1111   15.9029 C.2       9 UNK         0.4988 
     44 O         -48.9295  -26.2807   17.1138 O.2       9 UNK        -0.5108 
     45 CA        -47.5059  -25.4139   15.3997 C.3       8 UNK         0.0248 
     46 CB        -46.4777  -26.4494   14.9169 C.3       8 UNK        -0.2001 
     47 N         -47.7693  -24.4376   14.3401 N.am      8 UNK        -0.4140 
     48 C         -48.4647  -23.3035   14.5126 C.2       8 UNK         0.5028 
     49 O         -48.9144  -22.9312   15.5971 O.2       8 UNK        -0.5428 
     50 CA        -48.7104  -22.4355   13.2674 C.3       7 UNK         0.0264 
     51 CB        -47.4929  -21.5434   12.9771 C.3       7 UNK        -0.1988 
     52 N         -49.0422  -23.2101   12.0705 N.am      7 UNK        -0.4454 
     53 C         -50.1294  -23.9839   11.9292 C.2       7 UNK         0.5027 
     54 O         -50.9795  -24.1465   12.8059 O.2       7 UNK        -0.5083 
     55 CA        -50.2568  -24.7407   10.5905 C.3       6 UNK         0.0844 
     56 C56       -50.6080  -23.7721    9.4282 C.3       14 UNK        -0.0967 
     57 S57       -52.3674  -23.2887    9.4063 S.3       14 UNK        -0.2604 
     58 C58       -53.0066  -24.2880    8.0267 C.3       14 UNK         0.0134 
     59 N         -49.0550  -25.5351   10.3042 N.am      6 UNK        -0.4116 
     60 C         -48.5241  -26.4642   11.1157 C.2       5 UNK         0.5034 
     61 O         -49.0383  -26.8406   12.1676 O.2       5 UNK        -0.5045 
     62 CA        -47.1409  -27.0144   10.7325 C.3       5 UNK         0.0224 
     63 CB        -47.2473  -28.1889    9.7464 C.3       5 UNK        -0.1978 
     64 N         -46.2666  -25.9720   10.1896 N.am      5 UNK        -0.4737 
     65 C         -45.7684  -24.9581   10.9130 C.2       4 UNK         0.5027 
     66 O         -45.9453  -24.8305   12.1231 O.2       4 UNK        -0.5211 
     67 CA        -44.9894  -23.8770   10.1459 C.3       4 UNK         0.0297 
     68 CB        -43.5391  -24.3228    9.9026 C.3       4 UNK        -0.1993 
     69 N         -45.6236  -23.5373    8.8700 N.am      4 UNK        -0.4486 
     70 C         -46.8364  -22.9769    8.7526 C.2       3 UNK         0.4961 
     71 O         -47.5076  -22.5999    9.7120 O.2       3 UNK        -0.5105 
     72 CA        -47.4219  -22.8698    7.3325 C.3       3 UNK         0.0299 
     73 CB        -47.0567  -21.5177    6.7010 C.3       3 UNK        -0.1972 
     74 N         -46.9875  -23.9601    6.4520 N.am      3 UNK        -0.4305 
     75 C         -47.2875  -25.2543    6.6327 C.2       2 UNK         0.5006 
     76 O         -48.0234  -25.6697    7.5311 O.2       2 UNK        -0.5106 
     77 CA        -46.5400  -26.2408    5.7202 C.3       2 UNK         0.0296 
     78 CB        -45.1359  -26.5160    6.2876 C.3       2 UNK        -0.2002 
     79 N         -47.2227  -27.5235    5.5363 N.am      2 UNK        -0.4032 
     80 C         -48.3669  -27.7005    4.8588 C.2       1 UNK         0.5000 
     81 O         -49.0297  -26.7803    4.3764 O.2       1 UNK        -0.5238 
     82 H82       -45.6835  -30.8177    2.6362 H         1 UNK         0.0889 
     83 H83       -46.6937  -31.3613    1.2952 H         1 UNK         0.0889 
     84 H84       -46.3814  -32.4379    2.6594 H         1 UNK         0.0889 
     85 H85       -46.7794  -29.3672    3.9369 H         1 UNK         0.3028 
     86 H86       -49.6217  -29.1174    3.8969 H         1 UNK         0.0864 
     87 H87       -49.2016  -31.0110    5.6595 H         1 UNK         0.0720 
     88 H88       -48.5314  -29.7840    6.6876 H         1 UNK         0.0720 
     89 H89       -49.7805  -28.1080    7.8951 H         1 UNK         0.0814 
     90 H90       -50.4545  -29.5096    8.6983 H         1 UNK         0.0814 
     91 H91       -51.0931  -26.1388    7.4190 H         1 UNK         0.1469 
     92 H92       -54.8766  -25.7169    9.3920 H         1 UNK         0.1381 
     93 H93       -52.8965  -29.5246    9.3292 H         1 UNK         0.1206 
     94 H94       -56.1000  -27.7408    9.9752 H         1 UNK         0.0813 
     95 H95       -55.3675  -29.3166    9.8868 H         1 UNK         0.0813 
     96 H96       -53.8989  -30.3357   11.4302 H         1 UNK         0.0638 
     97 H97       -53.4568  -29.8315   13.0332 H         1 UNK         0.0638 
     98 H98       -56.1868  -30.8941   12.1943 H         1 UNK         0.0568 
     99 H99       -54.4754  -33.6931   14.5342 H         1 UNK         0.3450 
    100 H100      -55.0875  -32.1974   15.1970 H         1 UNK         0.3450 
    101 H101      -55.4905  -29.4642   14.6125 H         1 UNK         0.2987 
    102 H102      -58.8251  -29.7412   15.8124 H         1 UNK         0.0766 
    103 H103      -57.6735  -29.7736   18.0060 H         1 UNK         0.0798 
    104 H104      -56.1647  -30.2615   17.2371 H         1 UNK         0.0798 
    105 H105      -57.5537  -31.3355   17.2128 H         1 UNK         0.0798 
    106 H106      -58.2781  -27.6382   15.6783 H         1 UNK         0.3198 
    107 H107      -56.8408  -25.7257   14.9449 H         1 UNK         0.0843 
    108 H108      -56.6276  -25.8400   18.0200 H         1 UNK         0.0831 
    109 H109      -58.1299  -25.8704   17.1068 H         1 UNK         0.0831 
    110 H110      -57.1377  -24.4282   17.0986 H         1 UNK         0.0831 
    111 H111      -54.2643  -26.1597   16.1888 H         1 UNK         0.3133 
    112 H112      -52.9315  -23.1720   14.7800 H         1 UNK         0.0566 
    113 H113      -51.7305  -22.9347   16.9400 H         1 UNK         0.0814 
    114 H114      -53.3922  -22.3784   17.0731 H         1 UNK         0.0814 
    115 H115      -52.9390  -23.9358   17.7452 H         1 UNK         0.0814 
    116 H116      -51.6586  -24.8693   14.3731 H         1 UNK         0.3091 
    117 H117      -50.7750  -27.9332   16.0041 H         1 UNK         0.0702 
    118 H118      -52.5342  -28.1740   14.2321 H         1 UNK         0.0785 
    119 H119      -50.9244  -28.5673   13.6388 H         1 UNK         0.0785 
    120 H120      -51.6730  -27.0287   13.2155 H         1 UNK         0.0785 
    121 H121      -49.4442  -26.3813   13.9919 H         1 UNK         0.2998 
    122 H122      -47.0691  -24.8748   16.2430 H         1 UNK         0.0697 
    123 H123      -46.8435  -27.0092   14.0560 H         1 UNK         0.0825 
    124 H124      -46.2509  -27.1706   15.7032 H         1 UNK         0.0825 
    125 H125      -45.5388  -25.9738   14.6330 H         1 UNK         0.0825 
    126 H126      -47.3590  -24.6285   13.4295 H         1 UNK         0.3029 
    127 H127      -49.5635  -21.7888   13.4837 H         1 UNK         0.0897 
    128 H128      -47.6896  -20.8616   12.1494 H         1 UNK         0.0792 
    129 H129      -46.6125  -22.1337   12.7201 H         1 UNK         0.0792 
    130 H130      -47.2376  -20.9350   13.8458 H         1 UNK         0.0792 
    131 H131      -48.4090  -23.1132   11.2788 H         1 UNK         0.3086 
    132 H132      -51.0706  -25.4614   10.6975 H         1 UNK         0.0583 
    133 H133      -50.0178  -22.8568    9.4729 H         1 UNK         0.1020 
    134 H134      -50.3544  -24.2218    8.4687 H         1 UNK         0.1020 
    135 H135      -54.0274  -23.9731    7.8048 H         1 UNK         0.0694 
    136 H136      -52.4237  -24.0907    7.1255 H         1 UNK         0.0694 
    137 H137      -48.5783  -25.3451    9.4292 H         1 UNK         0.2989 
    138 H138      -46.6810  -27.3928   11.6479 H         1 UNK         0.1055 
    139 H139      -47.9214  -28.9576   10.1271 H         1 UNK         0.0806 
    140 H140      -46.2768  -28.6600    9.5904 H         1 UNK         0.0806 
    141 H141      -47.6239  -27.8774    8.7741 H         1 UNK         0.0806 
    142 H142      -46.1179  -25.9748    9.1920 H         1 UNK         0.3061 
    143 H143      -44.9730  -22.9769   10.7645 H         1 UNK         0.0734 
    144 H144      -42.9553  -23.5337    9.4284 H         1 UNK         0.0832 
    145 H145      -43.0451  -24.5664   10.8444 H         1 UNK         0.0832 
    146 H146      -43.4852  -25.2089    9.2688 H         1 UNK         0.0832 
    147 H147      -45.1283  -23.7904    8.0284 H         1 UNK         0.3156 
    148 H148      -48.5088  -22.9219    7.4158 H         1 UNK         0.0589 
    149 H149      -45.9796  -21.4080    6.5688 H         1 UNK         0.0808 
    150 H150      -47.5301  -21.3935    5.7269 H         1 UNK         0.0808 
    151 H151      -47.3932  -20.6917    7.3295 H         1 UNK         0.0808 
    152 H152      -46.3748  -23.7064    5.6896 H         1 UNK         0.3098 
    153 H153      -46.4340  -25.7798    4.7357 H         1 UNK         0.0720 
    154 H154      -44.5607  -27.1619    5.6237 H         1 UNK         0.0791 
    155 H155      -45.1807  -26.9988    7.2648 H         1 UNK         0.0791 
    156 H156      -44.5643  -25.5944    6.4034 H         1 UNK         0.0791 
    157 H157      -46.7682  -28.3301    5.9375 H         1 UNK         0.3028 
@<TRIPOS>BOND
     1    1    2 1    
     2    1   82 1    
     3    1   83 1    
     4    1   84 1    
     5    2    3 2    
     6    2    4 am   BACKBONE|DICT|INTERRES
     7    4    5 1    
     8    4   85 1    
     9    5    6 1    
    10    5   80 1    
    11    5   86 1    
    12    6    7 1    
    13    6   87 1    
    14    6   88 1    
    15    7    8 1    
    16    8    9 1    
    17    8   89 1    
    18    8   90 1    
    19    9   10 ar   
    20    9   14 ar   
    21   10   11 ar   
    22   10   91 1    
    23   11   12 ar   
    24   11   58 1    
    25   12   13 ar   
    26   12   92 1    
    27   13   14 ar   
    28   13   15 1    
    29   14   93 1    
    30   15   16 1    
    31   15   94 1    
    32   15   95 1    
    33   16   17 1    
    34   17   18 1    
    35   17   96 1    
    36   17   97 1    
    37   18   19 1    
    38   18   22 1    
    39   18   98 1    
    40   19   20 am   BACKBONE|DICT|INTERRES
    41   19   21 2    
    42   20   99 1    
    43   20  100 1    
    44   22   23 am   BACKBONE|DICT|INTERRES
    45   22  101 1    
    46   23   24 2    
    47   23   25 1    
    48   25   26 1    
    49   25   27 1    
    50   25  102 1    
    51   26  103 1    
    52   26  104 1    
    53   26  105 1    
    54   27   28 am   BACKBONE|DICT|INTERRES
    55   27  106 1    
    56   28   29 2    
    57   28   30 1    
    58   30   31 1    
    59   30   32 1    
    60   30  107 1    
    61   31  108 1    
    62   31  109 1    
    63   31  110 1    
    64   32   33 am   BACKBONE|DICT|INTERRES
    65   32  111 1    
    66   33   34 2    
    67   33   35 1    
    68   35   36 1    
    69   35   37 1    
    70   35  112 1    
    71   36  113 1    
    72   36  114 1    
    73   36  115 1    
    74   37   38 am   BACKBONE|DICT|INTERRES
    75   37  116 1    
    76   38   39 2    
    77   38   40 1    
    78   40   41 1    
    79   40   42 1    
    80   40  117 1    
    81   41  118 1    
    82   41  119 1    
    83   41  120 1    
    84   42   43 am   BACKBONE|DICT|INTERRES
    85   42  121 1    
    86   43   44 2    
    87   43   45 1    
    88   45   46 1    
    89   45   47 1    
    90   45  122 1    
    91   46  123 1    
    92   46  124 1    
    93   46  125 1    
    94   47   48 am   BACKBONE|DICT|INTERRES
    95   47  126 1    
    96   48   49 2    
    97   48   50 1    
    98   50   51 1    
    99   50   52 1    
   100   50  127 1    
   101   51  128 1    
   102   51  129 1    
   103   51  130 1    
   104   52   53 am   BACKBONE|DICT|INTERRES
   105   52  131 1    
   106   53   54 2    
   107   53   55 1    
   108   55   56 1    
   109   55   59 1    
   110   55  132 1    
   111   56   57 1    
   112   56  133 1    
   113   56  134 1    
   114   57   58 1    
   115   58  135 1    
   116   58  136 1    
   117   59   60 am   BACKBONE|DICT|INTERRES
   118   59  137 1    
   119   60   61 2    
   120   60   62 1    
   121   62   63 1    
   122   62   64 1    
   123   62  138 1    
   124   63  139 1    
   125   63  140 1    
   126   63  141 1    
   127   64   65 am   BACKBONE|DICT|INTERRES
   128   64  142 1    
   129   65   66 2    
   130   65   67 1    
   131   67   68 1    
   132   67   69 1    
   133   67  143 1    
   134   68  144 1    
   135   68  145 1    
   136   68  146 1    
   137   69   70 am   BACKBONE|DICT|INTERRES
   138   69  147 1    
   139   70   71 2    
   140   70   72 1    
   141   72   73 1    
   142   72   74 1    
   143   72  148 1    
   144   73  149 1    
   145   73  150 1    
   146   73  151 1    
   147   74   75 am   BACKBONE|DICT|INTERRES
   148   74  152 1    
   149   75   76 2    
   150   75   77 1    
   151   77   78 1    
   152   77   79 1    
   153   77  153 1    
   154   78  154 1    
   155   78  155 1    
   156   78  156 1    
   157   79   80 am   BACKBONE|DICT|INTERRES
   158   79  157 1    
   159   80   81 2    
@<TRIPOS>SUBSTRUCTURE
     1 UNK         1 GROUP             0       ****    0 ROOT    
