@<TRIPOS>MOLECULE
3R207
157   159    1
SMALL
USER_CHARGES


@<TRIPOS>ATOM
      1 CA        -44.9703  -29.2949    8.7766 C.3       0 UNK        -0.1975 
      2 C         -46.0420  -29.8840    7.8716 C.2       0 UNK         0.4852 
      3 O         -45.7314  -30.7000    7.0038 O.2       0 UNK        -0.5216 
      4 N         -47.3022  -29.4697    8.0620 N.am      1 UNK        -0.4461 
      5 CA        -48.4670  -29.9287    7.2916 C.3       1 UNK         0.0864 
      6 C6        -49.7825  -29.6952    8.0754 C.3       14 UNK        -0.0898 
      7 S7        -50.1632  -27.9384    8.4271 S.3       14 UNK        -0.2598 
      8 C8        -51.7374  -27.7394    7.5372 C.3       14 UNK         0.0286 
      9 C9        -52.5663  -26.6032    8.1151 C.ar      14 UNK        -0.0844 
     10 C10       -52.3503  -25.2845    7.7038 C.ar      14 UNK        -0.0881 
     11 C11       -53.1420  -24.2471    8.2082 C.ar      14 UNK        -0.0643 
     12 C12       -54.1533  -24.5366    9.1291 C.ar      14 UNK        -0.0930 
     13 C13       -54.3752  -25.8501    9.5497 C.ar      14 UNK        -0.0827 
     14 C14       -53.5762  -26.8785    9.0427 C.ar      14 UNK        -0.1249 
     15 C15       -55.4936  -26.1639   10.5300 C.3       14 UNK         0.0141 
     16 S16       -54.8623  -26.3014   12.2281 S.3       14 UNK        -0.2313 
     17 C17       -56.3835  -26.7436   13.1391 C.3       14 UNK        -0.0915 
     18 CA        -56.5178  -28.2558   13.4644 C.3       13 UNK         0.0968 
     19 C         -56.8086  -29.1022   12.1876 C.2       13 UNK         0.5732 
     20 N         -55.9183  -29.9810   11.7409 N.am      13 UNK        -0.7310 
     21 O         -57.8746  -28.9590   11.5933 O.2       13 UNK        -0.5035 
     22 N         -55.4095  -28.7400   14.3018 N.am      13 UNK        -0.4233 
     23 C         -55.4051  -29.9143   14.9486 C.2       13 UNK         0.4989 
     24 O         -56.4003  -30.6347   15.0486 O.2       13 UNK        -0.4996 
     25 CA        -54.0695  -30.3726   15.5759 C.3       12 UNK         0.0216 
     26 CB        -53.9791  -31.9068   15.7132 C.3       12 UNK        -0.1964 
     27 N         -52.8760  -29.8580   14.8904 N.am      12 UNK        -0.4276 
     28 C         -52.5637  -29.9642   13.5884 C.2       12 UNK         0.5020 
     29 O         -53.2550  -30.5752   12.7716 O.2       12 UNK        -0.5489 
     30 CA        -51.2908  -29.2444   13.1077 C.3       11 UNK         0.0294 
     31 CB        -51.5435  -28.4678   11.8044 C.3       11 UNK        -0.2019 
     32 N         -50.7796  -28.3183   14.1235 N.am      11 UNK        -0.4493 
     33 C         -49.5912  -28.4244   14.7338 C.2       11 UNK         0.4932 
     34 O         -48.7500  -29.2794   14.4560 O.2       11 UNK        -0.5029 
     35 CA        -49.2920  -27.4325   15.8760 C.3       10 UNK         0.0280 
     36 CB        -48.5548  -26.2002   15.3327 C.3       10 UNK        -0.1976 
     37 N         -50.4786  -27.0017   16.6251 N.am      10 UNK        -0.4242 
     38 C         -51.3038  -27.8247   17.2925 C.2       10 UNK         0.5072 
     39 O         -51.1331  -29.0407   17.3781 O.2       10 UNK        -0.5224 
     40 CA        -52.5727  -27.2182   17.9190 C.3       9 UNK         0.0343 
     41 CB        -52.3410  -26.9105   19.4065 C.3       9 UNK        -0.2003 
     42 N         -53.0657  -26.0130   17.2496 N.am      9 UNK        -0.4272 
     43 C         -53.3718  -25.8939   15.9498 C.2       9 UNK         0.4988 
     44 O         -53.2792  -26.8148   15.1363 O.2       9 UNK        -0.5108 
     45 CA        -53.8179  -24.4997   15.4722 C.3       8 UNK         0.0248 
     46 CB        -54.4248  -23.6274   16.5942 C.3       8 UNK        -0.2001 
     47 N         -52.7490  -23.7629   14.7867 N.am      8 UNK        -0.4140 
     48 C         -51.5039  -23.5190   15.2263 C.2       8 UNK         0.5028 
     49 O         -51.0279  -23.9844   16.2646 O.2       8 UNK        -0.5428 
     50 CA        -50.6508  -22.6135   14.3280 C.3       7 UNK         0.0264 
     51 CB        -49.2191  -22.3881   14.8566 C.3       7 UNK        -0.1988 
     52 N         -50.6131  -23.1716   12.9801 N.am      7 UNK        -0.4454 
     53 C         -50.4274  -22.4840   11.8493 C.2       7 UNK         0.5027 
     54 O         -50.2491  -21.2644   11.8196 O.2       7 UNK        -0.5083 
     55 CA        -50.3990  -23.3174   10.5445 C.3       6 UNK         0.0844 
     56 C56       -50.5683  -22.4581    9.2648 C.3       14 UNK        -0.0967 
     57 S57       -52.2468  -21.7672    9.0695 S.3       14 UNK        -0.2604 
     58 C58       -52.9267  -22.8140    7.7451 C.3       14 UNK         0.0134 
     59 N         -49.1775  -24.1302   10.4753 N.am      6 UNK        -0.4116 
     60 C         -48.9179  -25.2067   11.2348 C.2       5 UNK         0.5034 
     61 O         -49.7257  -25.6675   12.0418 O.2       5 UNK        -0.5045 
     62 CA        -47.5303  -25.8627   11.1089 C.3       5 UNK         0.0224 
     63 CB        -47.5827  -27.3889   11.3066 C.3       5 UNK        -0.1978 
     64 N         -46.8869  -25.5532    9.8280 N.am      5 UNK        -0.4737 
     65 C         -45.7498  -24.8576    9.6903 C.2       4 UNK         0.5027 
     66 O         -45.0793  -24.4503   10.6390 O.2       4 UNK        -0.5211 
     67 CA        -45.2715  -24.5472    8.2573 C.3       4 UNK         0.0297 
     68 CB        -44.1273  -25.4925    7.8567 C.3       4 UNK        -0.1993 
     69 N         -46.3104  -24.5999    7.2224 N.am      4 UNK        -0.4486 
     70 C         -47.4205  -23.8543    7.1735 C.2       3 UNK         0.4961 
     71 O         -47.7252  -23.0456    8.0489 O.2       3 UNK        -0.5105 
     72 CA        -48.3785  -24.0628    5.9823 C.3       3 UNK         0.0299 
     73 CB        -48.1408  -22.9970    4.8957 C.3       3 UNK        -0.1972 
     74 N         -48.3927  -25.4223    5.4127 N.am      3 UNK        -0.4305 
     75 C         -47.4220  -26.0678    4.7492 C.2       2 UNK         0.5006 
     76 O         -46.3004  -25.6024    4.5448 O.2       2 UNK        -0.5106 
     77 CA        -47.7317  -27.5175    4.3643 C.3       2 UNK         0.0296 
     78 CB        -46.7003  -28.1258    3.3938 C.3       2 UNK        -0.2002 
     79 N         -47.7631  -28.2847    5.6034 N.am      2 UNK        -0.4032 
     80 C         -48.5406  -29.3416    5.8624 C.2       1 UNK         0.5000 
     81 O         -49.3082  -29.8434    5.0388 O.2       1 UNK        -0.5238 
     82 H82       -45.3180  -28.3998    9.2909 H         1 UNK         0.0889 
     83 H83       -44.0898  -29.0266    8.1933 H         1 UNK         0.0889 
     84 H84       -44.6703  -30.0264    9.5265 H         1 UNK         0.0889 
     85 H85       -47.5093  -28.8154    8.8022 H         1 UNK         0.3028 
     86 H86       -48.3620  -31.0084    7.1622 H         1 UNK         0.0864 
     87 H87       -50.6141  -30.1636    7.5463 H         1 UNK         0.0720 
     88 H88       -49.7299  -30.2150    9.0334 H         1 UNK         0.0720 
     89 H89       -52.3144  -28.6638    7.5895 H         1 UNK         0.0814 
     90 H90       -51.5365  -27.5649    6.4793 H         1 UNK         0.0814 
     91 H91       -51.5729  -25.0694    6.9846 H         1 UNK         0.1469 
     92 H92       -54.7678  -23.7354    9.5167 H         1 UNK         0.1381 
     93 H93       -53.7476  -27.8960    9.3675 H         1 UNK         0.1206 
     94 H94       -55.9792  -27.0959   10.2394 H         1 UNK         0.0813 
     95 H95       -56.2622  -25.3905   10.4914 H         1 UNK         0.0813 
     96 H96       -56.3828  -26.1782   14.0715 H         1 UNK         0.0638 
     97 H97       -57.2566  -26.3879   12.5890 H         1 UNK         0.0638 
     98 H98       -57.4174  -28.3554   14.0745 H         1 UNK         0.0568 
     99 H99       -56.1332  -30.5197   10.9182 H         1 UNK         0.3450 
    100 H100      -55.0247  -30.1133   12.2077 H         1 UNK         0.3450 
    101 H101      -54.5658  -28.1764   14.2950 H         1 UNK         0.2987 
    102 H102      -54.0499  -29.9495   16.5806 H         1 UNK         0.0766 
    103 H103      -54.0449  -32.4017   14.7435 H         1 UNK         0.0798 
    104 H104      -53.0415  -32.2080   16.1806 H         1 UNK         0.0798 
    105 H105      -54.7868  -32.2963   16.3341 H         1 UNK         0.0798 
    106 H106      -52.2228  -29.3589   15.4815 H         1 UNK         0.3198 
    107 H107      -50.5599  -30.0272   12.8965 H         1 UNK         0.0843 
    108 H108      -51.9544  -29.1099   11.0245 H         1 UNK         0.0831 
    109 H109      -50.6163  -28.0522   11.4142 H         1 UNK         0.0831 
    110 H110      -52.2394  -27.6424   11.9521 H         1 UNK         0.0831 
    111 H111      -51.4195  -27.5860   14.4149 H         1 UNK         0.3133 
    112 H112      -48.6305  -27.9388   16.5818 H         1 UNK         0.0566 
    113 H113      -48.2543  -25.5288   16.1372 H         1 UNK         0.0814 
    114 H114      -47.6518  -26.4883   14.7927 H         1 UNK         0.0814 
    115 H115      -49.1817  -25.6377   14.6415 H         1 UNK         0.0814 
    116 H116      -50.7046  -26.0111   16.5951 H         1 UNK         0.3091 
    117 H117      -53.3611  -27.9691   17.8457 H         1 UNK         0.0702 
    118 H118      -53.2591  -26.5791   19.8920 H         1 UNK         0.0785 
    119 H119      -51.5872  -26.1342   19.5446 H         1 UNK         0.0785 
    120 H120      -51.9972  -27.7979   19.9403 H         1 UNK         0.0785 
    121 H121      -53.1269  -25.1806   17.8177 H         1 UNK         0.2998 
    122 H122      -54.6009  -24.6673   14.7330 H         1 UNK         0.0697 
    123 H123      -54.8726  -22.7229   16.1822 H         1 UNK         0.0825 
    124 H124      -55.2164  -24.1589   17.1247 H         1 UNK         0.0825 
    125 H125      -53.6806  -23.3153   17.3279 H         1 UNK         0.0825 
    126 H126      -53.0045  -23.3790   13.8876 H         1 UNK         0.3029 
    127 H127      -51.1567  -21.6458   14.2985 H         1 UNK         0.0897 
    128 H128      -48.6810  -21.6628   14.2464 H         1 UNK         0.0792 
    129 H129      -49.2341  -22.0016   15.8765 H         1 UNK         0.0792 
    130 H130      -48.6395  -23.3103   14.8639 H         1 UNK         0.0792 
    131 H131      -50.6626  -24.1856   12.9061 H         1 UNK         0.3086 
    132 H132      -51.2436  -24.0098   10.5842 H         1 UNK         0.0583 
    133 H133      -49.8419  -21.6435    9.2380 H         1 UNK         0.1020 
    134 H134      -50.3530  -23.0671    8.3879 H         1 UNK         0.1020 
    135 H135      -53.8820  -22.3965    7.4236 H         1 UNK         0.0694 
    136 H136      -52.2692  -22.7748    6.8751 H         1 UNK         0.0694 
    137 H137      -48.4595  -23.7913    9.8446 H         1 UNK         0.2989 
    138 H138      -46.9454  -25.4510   11.9342 H         1 UNK         0.1055 
    139 H139      -46.5853  -27.8262   11.2816 H         1 UNK         0.0806 
    140 H140      -48.1902  -27.8779   10.5481 H         1 UNK         0.0806 
    141 H141      -48.0135  -27.6436   12.2752 H         1 UNK         0.0806 
    142 H142      -47.3887  -25.8177    8.9925 H         1 UNK         0.3061 
    143 H143      -44.8815  -23.5274    8.2699 H         1 UNK         0.0734 
    144 H144      -43.3306  -25.4849    8.6023 H         1 UNK         0.0832 
    145 H145      -44.4713  -26.5214    7.7558 H         1 UNK         0.0832 
    146 H146      -43.6814  -25.1947    6.9074 H         1 UNK         0.0832 
    147 H147      -46.1115  -25.1603    6.3986 H         1 UNK         0.3156 
    148 H148      -49.3851  -23.9051    6.3706 H         1 UNK         0.0589 
    149 H149      -47.1411  -23.0659    4.4657 H         1 UNK         0.0808 
    150 H150      -48.8626  -23.0895    4.0842 H         1 UNK         0.0808 
    151 H151      -48.2450  -21.9925    5.3082 H         1 UNK         0.0808 
    152 H152      -49.2492  -25.9350    5.5710 H         1 UNK         0.3098 
    153 H153      -48.7144  -27.5328    3.8876 H         1 UNK         0.0720 
    154 H154      -46.9776  -29.1408    3.1089 H         1 UNK         0.0791 
    155 H155      -45.7032  -28.1644    3.8345 H         1 UNK         0.0791 
    156 H156      -46.6324  -27.5379    2.4776 H         1 UNK         0.0791 
    157 H157      -47.1700  -27.9462    6.3468 H         1 UNK         0.3028 
@<TRIPOS>BOND
     1    1    2 1    
     2    1   82 1    
     3    1   83 1    
     4    1   84 1    
     5    2    3 2    
     6    2    4 am   BACKBONE|DICT|INTERRES
     7    4    5 1    
     8    4   85 1    
     9    5    6 1    
    10    5   80 1    
    11    5   86 1    
    12    6    7 1    
    13    6   87 1    
    14    6   88 1    
    15    7    8 1    
    16    8    9 1    
    17    8   89 1    
    18    8   90 1    
    19    9   10 ar   
    20    9   14 ar   
    21   10   11 ar   
    22   10   91 1    
    23   11   12 ar   
    24   11   58 1    
    25   12   13 ar   
    26   12   92 1    
    27   13   14 ar   
    28   13   15 1    
    29   14   93 1    
    30   15   16 1    
    31   15   94 1    
    32   15   95 1    
    33   16   17 1    
    34   17   18 1    
    35   17   96 1    
    36   17   97 1    
    37   18   19 1    
    38   18   22 1    
    39   18   98 1    
    40   19   20 am   BACKBONE|DICT|INTERRES
    41   19   21 2    
    42   20   99 1    
    43   20  100 1    
    44   22   23 am   BACKBONE|DICT|INTERRES
    45   22  101 1    
    46   23   24 2    
    47   23   25 1    
    48   25   26 1    
    49   25   27 1    
    50   25  102 1    
    51   26  103 1    
    52   26  104 1    
    53   26  105 1    
    54   27   28 am   BACKBONE|DICT|INTERRES
    55   27  106 1    
    56   28   29 2    
    57   28   30 1    
    58   30   31 1    
    59   30   32 1    
    60   30  107 1    
    61   31  108 1    
    62   31  109 1    
    63   31  110 1    
    64   32   33 am   BACKBONE|DICT|INTERRES
    65   32  111 1    
    66   33   34 2    
    67   33   35 1    
    68   35   36 1    
    69   35   37 1    
    70   35  112 1    
    71   36  113 1    
    72   36  114 1    
    73   36  115 1    
    74   37   38 am   BACKBONE|DICT|INTERRES
    75   37  116 1    
    76   38   39 2    
    77   38   40 1    
    78   40   41 1    
    79   40   42 1    
    80   40  117 1    
    81   41  118 1    
    82   41  119 1    
    83   41  120 1    
    84   42   43 am   BACKBONE|DICT|INTERRES
    85   42  121 1    
    86   43   44 2    
    87   43   45 1    
    88   45   46 1    
    89   45   47 1    
    90   45  122 1    
    91   46  123 1    
    92   46  124 1    
    93   46  125 1    
    94   47   48 am   BACKBONE|DICT|INTERRES
    95   47  126 1    
    96   48   49 2    
    97   48   50 1    
    98   50   51 1    
    99   50   52 1    
   100   50  127 1    
   101   51  128 1    
   102   51  129 1    
   103   51  130 1    
   104   52   53 am   BACKBONE|DICT|INTERRES
   105   52  131 1    
   106   53   54 2    
   107   53   55 1    
   108   55   56 1    
   109   55   59 1    
   110   55  132 1    
   111   56   57 1    
   112   56  133 1    
   113   56  134 1    
   114   57   58 1    
   115   58  135 1    
   116   58  136 1    
   117   59   60 am   BACKBONE|DICT|INTERRES
   118   59  137 1    
   119   60   61 2    
   120   60   62 1    
   121   62   63 1    
   122   62   64 1    
   123   62  138 1    
   124   63  139 1    
   125   63  140 1    
   126   63  141 1    
   127   64   65 am   BACKBONE|DICT|INTERRES
   128   64  142 1    
   129   65   66 2    
   130   65   67 1    
   131   67   68 1    
   132   67   69 1    
   133   67  143 1    
   134   68  144 1    
   135   68  145 1    
   136   68  146 1    
   137   69   70 am   BACKBONE|DICT|INTERRES
   138   69  147 1    
   139   70   71 2    
   140   70   72 1    
   141   72   73 1    
   142   72   74 1    
   143   72  148 1    
   144   73  149 1    
   145   73  150 1    
   146   73  151 1    
   147   74   75 am   BACKBONE|DICT|INTERRES
   148   74  152 1    
   149   75   76 2    
   150   75   77 1    
   151   77   78 1    
   152   77   79 1    
   153   77  153 1    
   154   78  154 1    
   155   78  155 1    
   156   78  156 1    
   157   79   80 am   BACKBONE|DICT|INTERRES
   158   79  157 1    
   159   80   81 2    
@<TRIPOS>SUBSTRUCTURE
     1 UNK         1 GROUP             0       ****    0 ROOT    
