@<TRIPOS>MOLECULE
3R207
157   159    1
SMALL
USER_CHARGES


@<TRIPOS>ATOM
      1 CA        -49.9474  -29.7991    2.1740 C.3       0 UNK        -0.1975 
      2 C         -50.3999  -29.4013    3.5713 C.2       0 UNK         0.4852 
      3 O         -50.3299  -30.2193    4.4887 O.2       0 UNK        -0.5216 
      4 N         -50.8573  -28.1501    3.7349 N.am      1 UNK        -0.4461 
      5 CA        -51.3513  -27.5600    4.9905 C.3       1 UNK         0.0864 
      6 C6        -52.6175  -28.2911    5.5345 C.3       14 UNK        -0.0898 
      7 S7        -53.8956  -27.1431    6.1499 S.3       14 UNK        -0.2598 
      8 C8        -54.5782  -28.0623    7.5680 C.3       14 UNK         0.0286 
      9 C9        -53.7023  -27.9294    8.8048 C.ar      14 UNK        -0.0844 
     10 C10       -53.7168  -26.7425    9.5448 C.ar      14 UNK        -0.0881 
     11 C11       -52.9011  -26.5987   10.6700 C.ar      14 UNK        -0.0643 
     12 C12       -52.0827  -27.6607   11.0638 C.ar      14 UNK        -0.0930 
     13 C13       -52.0480  -28.8462   10.3275 C.ar      14 UNK        -0.0827 
     14 C14       -52.8688  -28.9801    9.2033 C.ar      14 UNK        -0.1249 
     15 C15       -51.0713  -29.9497   10.7099 C.3       14 UNK         0.0141 
     16 S16       -51.8809  -31.3847   11.4816 S.3       14 UNK        -0.2313 
     17 C17       -52.4086  -30.7319   13.1042 C.3       14 UNK        -0.0915 
     18 CA        -53.9232  -30.9709   13.3406 C.3       13 UNK         0.0968 
     19 C         -54.3480  -30.7280   14.8188 C.2       13 UNK         0.5732 
     20 N         -55.4305  -30.0131   15.1050 N.am      13 UNK        -0.7310 
     21 O         -53.6970  -31.2267   15.7340 O.2       13 UNK        -0.5035 
     22 N         -54.7341  -30.2265   12.3690 N.am      13 UNK        -0.4233 
     23 C         -55.8245  -30.6979   11.7537 C.2       13 UNK         0.4989 
     24 O         -56.2413  -31.8505   11.8858 O.2       13 UNK        -0.4996 
     25 CA        -56.5802  -29.7123   10.8367 C.3       12 UNK         0.0216 
     26 CB        -58.0568  -30.1087   10.6232 C.3       12 UNK        -0.1964 
     27 N         -56.4833  -28.3109   11.2680 N.am      12 UNK        -0.4276 
     28 C         -56.8392  -27.8053   12.4577 C.2       12 UNK         0.5020 
     29 O         -57.3313  -28.4620   13.3788 O.2       12 UNK        -0.5489 
     30 CA        -56.5735  -26.3043   12.6554 C.3       11 UNK         0.0294 
     31 CB        -57.8954  -25.5198   12.6481 C.3       11 UNK        -0.2019 
     32 N         -55.8398  -26.0060   13.8904 N.am      11 UNK        -0.4493 
     33 C         -54.6778  -26.5551   14.2712 C.2       11 UNK         0.4932 
     34 O         -54.0736  -27.4236   13.6353 O.2       11 UNK        -0.5029 
     35 CA        -54.0850  -26.0301   15.5838 C.3       10 UNK         0.0280 
     36 CB        -54.8517  -26.5742   16.8019 C.3       10 UNK        -0.1976 
     37 N         -52.6909  -26.4524   15.6624 N.am      10 UNK        -0.4242 
     38 C         -51.6730  -25.7420   16.1574 C.2       10 UNK         0.5072 
     39 O         -51.8001  -24.6231   16.6607 O.2       10 UNK        -0.5224 
     40 CA        -50.2853  -26.4047   16.1181 C.3       9 UNK         0.0343 
     41 CB        -50.1312  -27.4811   15.0212 C.3       9 UNK        -0.2003 
     42 N         -49.2504  -25.3844   15.9485 N.am      9 UNK        -0.4272 
     43 C         -48.0908  -25.3440   16.6198 C.2       9 UNK         0.4988 
     44 O         -47.7885  -26.1586   17.4943 O.2       9 UNK        -0.5108 
     45 CA        -47.0883  -24.2258   16.2689 C.3       8 UNK         0.0248 
     46 CB        -45.6385  -24.7461   16.2543 C.3       8 UNK        -0.2001 
     47 N         -47.3762  -23.6271   14.9655 N.am      8 UNK        -0.4140 
     48 C         -47.6541  -22.3354   14.7418 C.2       8 UNK         0.5028 
     49 O         -47.6599  -21.4770   15.6255 O.2       8 UNK        -0.5428 
     50 CA        -47.9881  -21.9079   13.2955 C.3       7 UNK         0.0264 
     51 CB        -46.7929  -21.1698   12.6701 C.3       7 UNK        -0.1988 
     52 N         -48.3896  -22.9960   12.3974 N.am      7 UNK        -0.4454 
     53 C         -49.4296  -23.8209   12.5894 C.2       7 UNK         0.5027 
     54 O         -50.1960  -23.7406   13.5506 O.2       7 UNK        -0.5083 
     55 CA        -49.5794  -24.9953   11.6001 C.3       6 UNK         0.0844 
     56 C56       -50.3619  -24.6133   10.3189 C.3       14 UNK        -0.0967 
     57 S57       -52.0458  -23.9490   10.5666 S.3       14 UNK        -0.2604 
     58 C58       -52.8913  -25.2940   11.4544 C.3       14 UNK         0.0134 
     59 N         -48.2959  -25.6170   11.2594 N.am      6 UNK        -0.4116 
     60 C         -47.3909  -26.1073   12.1197 C.2       5 UNK         0.5034 
     61 O         -47.5234  -26.1003   13.3416 O.2       5 UNK        -0.5045 
     62 CA        -46.0920  -26.6507   11.5121 C.3       5 UNK         0.0224 
     63 CB        -46.3019  -28.0604   10.9350 C.3       5 UNK        -0.1978 
     64 N         -45.5926  -25.7485   10.4730 N.am      5 UNK        -0.4737 
     65 C         -44.8839  -24.6387   10.7238 C.2       4 UNK         0.5027 
     66 O         -44.4908  -24.3191   11.8454 O.2       4 UNK        -0.5211 
     67 CA        -44.5657  -23.7201    9.5299 C.3       4 UNK         0.0297 
     68 CB        -43.2119  -24.0990    8.9088 C.3       4 UNK        -0.1993 
     69 N         -45.5969  -23.7280    8.4880 N.am      4 UNK        -0.4486 
     70 C         -46.8422  -23.2573    8.6439 C.2       3 UNK         0.4961 
     71 O         -47.2629  -22.7588    9.6882 O.2       3 UNK        -0.5105 
     72 CA        -47.7949  -23.4145    7.4427 C.3       3 UNK         0.0299 
     73 CB        -47.5793  -22.2715    6.4379 C.3       3 UNK        -0.1972 
     74 N         -47.7082  -24.7056    6.7441 N.am      3 UNK        -0.4305 
     75 C         -47.7515  -25.9174    7.3182 C.2       2 UNK         0.5006 
     76 O         -47.7994  -26.0966    8.5358 O.2       2 UNK        -0.5106 
     77 CA        -47.7368  -27.1233    6.3621 C.3       2 UNK         0.0296 
     78 CB        -47.4314  -28.4502    7.0905 C.3       2 UNK        -0.2002 
     79 N         -48.9774  -27.2399    5.5841 N.am      2 UNK        -0.4032 
     80 C         -50.2337  -27.3692    6.0496 C.2       1 UNK         0.5000 
     81 O         -50.5226  -27.3425    7.2451 O.2       1 UNK        -0.5238 
     82 H82       -48.8984  -30.0937    2.1891 H         1 UNK         0.0889 
     83 H83       -50.0607  -28.9840    1.4595 H         1 UNK         0.0889 
     84 H84       -50.5338  -30.6456    1.8175 H         1 UNK         0.0889 
     85 H85       -50.8919  -27.5358    2.9322 H         1 UNK         0.3028 
     86 H86       -51.6429  -26.5463    4.7112 H         1 UNK         0.0864 
     87 H87       -53.0937  -28.8678    4.7401 H         1 UNK         0.0720 
     88 H88       -52.3558  -29.0233    6.3003 H         1 UNK         0.0720 
     89 H89       -54.7158  -29.1102    7.2966 H         1 UNK         0.0814 
     90 H90       -55.5735  -27.6745    7.7894 H         1 UNK         0.0814 
     91 H91       -54.3407  -25.9180    9.2278 H         1 UNK         0.1469 
     92 H92       -51.4557  -27.5610   11.9364 H         1 UNK         0.1381 
     93 H93       -52.8368  -29.8939    8.6264 H         1 UNK         0.1206 
     94 H94       -50.5509  -30.2848    9.8114 H         1 UNK         0.0813 
     95 H95       -50.2976  -29.5706   11.3796 H         1 UNK         0.0813 
     96 H96       -52.1711  -29.6704   13.1858 H         1 UNK         0.0638 
     97 H97       -51.8100  -31.2385   13.8631 H         1 UNK         0.0638 
     98 H98       -54.0948  -32.0379   13.1891 H         1 UNK         0.0568 
     99 H99       -55.9867  -29.5811   14.3745 H         1 UNK         0.3450 
    100 H100      -55.6944  -29.8943   16.0687 H         1 UNK         0.3450 
    101 H101      -54.4813  -29.2532   12.2540 H         1 UNK         0.2987 
    102 H102      -56.0804  -29.7681    9.8685 H         1 UNK         0.0766 
    103 H103      -58.1374  -31.1004   10.1762 H         1 UNK         0.0798 
    104 H104      -58.5620  -29.4126    9.9538 H         1 UNK         0.0798 
    105 H105      -58.6082  -30.1297   11.5639 H         1 UNK         0.0798 
    106 H106      -56.0521  -27.6874   10.6002 H         1 UNK         0.3198 
    107 H107      -55.9672  -25.9472   11.8225 H         1 UNK         0.0843 
    108 H108      -58.5357  -25.8033   13.4846 H         1 UNK         0.0831 
    109 H109      -58.4565  -25.7081   11.7317 H         1 UNK         0.0831 
    110 H110      -57.7227  -24.4448   12.7045 H         1 UNK         0.0831 
    111 H111      -56.2645  -25.3242   14.5018 H         1 UNK         0.3133 
    112 H112      -54.1431  -24.9397   15.5685 H         1 UNK         0.0566 
    113 H113      -54.8148  -27.6633   16.8449 H         1 UNK         0.0814 
    114 H114      -55.9023  -26.2834   16.7729 H         1 UNK         0.0814 
    115 H115      -54.4362  -26.1897   17.7335 H         1 UNK         0.0814 
    116 H116      -52.5032  -27.3268   15.1890 H         1 UNK         0.3091 
    117 H117      -50.1658  -26.8914   17.0880 H         1 UNK         0.0702 
    118 H118      -49.1135  -27.8717   14.9972 H         1 UNK         0.0785 
    119 H119      -50.3495  -27.0797   14.0327 H         1 UNK         0.0785 
    120 H120      -50.7899  -28.3329   15.1935 H         1 UNK         0.0785 
    121 H121      -49.4689  -24.6515   15.2809 H         1 UNK         0.2998 
    122 H122      -47.1743  -23.4784   17.0597 H         1 UNK         0.0697 
    123 H123      -44.9341  -23.9487   16.0168 H         1 UNK         0.0825 
    124 H124      -45.5067  -25.5396   15.5173 H         1 UNK         0.0825 
    125 H125      -45.3519  -25.1492   17.2264 H         1 UNK         0.0825 
    126 H126      -47.4183  -24.2849   14.1926 H         1 UNK         0.3029 
    127 H127      -48.8280  -21.2129   13.3567 H         1 UNK         0.0897 
    128 H128      -45.9353  -21.8320   12.5420 H         1 UNK         0.0792 
    129 H129      -46.4727  -20.3362   13.2967 H         1 UNK         0.0792 
    130 H130      -47.0471  -20.7591   11.6926 H         1 UNK         0.0792 
    131 H131      -47.8431  -23.1014   11.5461 H         1 UNK         0.3086 
    132 H132      -50.1418  -25.7648   12.1233 H         1 UNK         0.0583 
    133 H133      -49.8022  -23.8640    9.7615 H         1 UNK         0.1020 
    134 H134      -50.4363  -25.4786    9.6561 H         1 UNK         0.1020 
    135 H135      -52.4315  -25.4288   12.4343 H         1 UNK         0.0694 
    136 H136      -53.9152  -24.9777   11.6473 H         1 UNK         0.0694 
    137 H137      -48.0950  -25.7064   10.2645 H         1 UNK         0.2989 
    138 H138      -45.3510  -26.7205   12.3122 H         1 UNK         0.1055 
    139 H139      -45.3800  -28.4556   10.5085 H         1 UNK         0.0806 
    140 H140      -47.0653  -28.0765   10.1569 H         1 UNK         0.0806 
    141 H141      -46.6215  -28.7532   11.7146 H         1 UNK         0.0806 
    142 H142      -45.9461  -25.8992    9.5358 H         1 UNK         0.3061 
    143 H143      -44.4911  -22.7007    9.9150 H         1 UNK         0.0734 
    144 H144      -43.2277  -25.1039    8.4848 H         1 UNK         0.0832 
    145 H145      -42.9276  -23.4036    8.1188 H         1 UNK         0.0832 
    146 H146      -42.4196  -24.0751    9.6585 H         1 UNK         0.0832 
    147 H147      -45.3456  -24.1292    7.5962 H         1 UNK         0.3156 
    148 H148      -48.8145  -23.3300    7.8187 H         1 UNK         0.0589 
    149 H149      -48.3296  -22.2899    5.6471 H         1 UNK         0.0808 
    150 H150      -46.5956  -22.3226    5.9697 H         1 UNK         0.0808 
    151 H151      -47.6559  -21.3003    6.9293 H         1 UNK         0.0808 
    152 H152      -47.6716  -24.6622    5.7357 H         1 UNK         0.3098 
    153 H153      -46.9308  -26.9514    5.6472 H         1 UNK         0.0720 
    154 H154      -46.4758  -28.3977    7.6136 H         1 UNK         0.0791 
    155 H155      -47.3732  -29.2824    6.3891 H         1 UNK         0.0791 
    156 H156      -48.1948  -28.6923    7.8312 H         1 UNK         0.0791 
    157 H157      -48.8605  -27.2586    4.5811 H         1 UNK         0.3028 
@<TRIPOS>BOND
     1    1    2 1    
     2    1   82 1    
     3    1   83 1    
     4    1   84 1    
     5    2    3 2    
     6    2    4 am   BACKBONE|DICT|INTERRES
     7    4    5 1    
     8    4   85 1    
     9    5    6 1    
    10    5   80 1    
    11    5   86 1    
    12    6    7 1    
    13    6   87 1    
    14    6   88 1    
    15    7    8 1    
    16    8    9 1    
    17    8   89 1    
    18    8   90 1    
    19    9   10 ar   
    20    9   14 ar   
    21   10   11 ar   
    22   10   91 1    
    23   11   12 ar   
    24   11   58 1    
    25   12   13 ar   
    26   12   92 1    
    27   13   14 ar   
    28   13   15 1    
    29   14   93 1    
    30   15   16 1    
    31   15   94 1    
    32   15   95 1    
    33   16   17 1    
    34   17   18 1    
    35   17   96 1    
    36   17   97 1    
    37   18   19 1    
    38   18   22 1    
    39   18   98 1    
    40   19   20 am   BACKBONE|DICT|INTERRES
    41   19   21 2    
    42   20   99 1    
    43   20  100 1    
    44   22   23 am   BACKBONE|DICT|INTERRES
    45   22  101 1    
    46   23   24 2    
    47   23   25 1    
    48   25   26 1    
    49   25   27 1    
    50   25  102 1    
    51   26  103 1    
    52   26  104 1    
    53   26  105 1    
    54   27   28 am   BACKBONE|DICT|INTERRES
    55   27  106 1    
    56   28   29 2    
    57   28   30 1    
    58   30   31 1    
    59   30   32 1    
    60   30  107 1    
    61   31  108 1    
    62   31  109 1    
    63   31  110 1    
    64   32   33 am   BACKBONE|DICT|INTERRES
    65   32  111 1    
    66   33   34 2    
    67   33   35 1    
    68   35   36 1    
    69   35   37 1    
    70   35  112 1    
    71   36  113 1    
    72   36  114 1    
    73   36  115 1    
    74   37   38 am   BACKBONE|DICT|INTERRES
    75   37  116 1    
    76   38   39 2    
    77   38   40 1    
    78   40   41 1    
    79   40   42 1    
    80   40  117 1    
    81   41  118 1    
    82   41  119 1    
    83   41  120 1    
    84   42   43 am   BACKBONE|DICT|INTERRES
    85   42  121 1    
    86   43   44 2    
    87   43   45 1    
    88   45   46 1    
    89   45   47 1    
    90   45  122 1    
    91   46  123 1    
    92   46  124 1    
    93   46  125 1    
    94   47   48 am   BACKBONE|DICT|INTERRES
    95   47  126 1    
    96   48   49 2    
    97   48   50 1    
    98   50   51 1    
    99   50   52 1    
   100   50  127 1    
   101   51  128 1    
   102   51  129 1    
   103   51  130 1    
   104   52   53 am   BACKBONE|DICT|INTERRES
   105   52  131 1    
   106   53   54 2    
   107   53   55 1    
   108   55   56 1    
   109   55   59 1    
   110   55  132 1    
   111   56   57 1    
   112   56  133 1    
   113   56  134 1    
   114   57   58 1    
   115   58  135 1    
   116   58  136 1    
   117   59   60 am   BACKBONE|DICT|INTERRES
   118   59  137 1    
   119   60   61 2    
   120   60   62 1    
   121   62   63 1    
   122   62   64 1    
   123   62  138 1    
   124   63  139 1    
   125   63  140 1    
   126   63  141 1    
   127   64   65 am   BACKBONE|DICT|INTERRES
   128   64  142 1    
   129   65   66 2    
   130   65   67 1    
   131   67   68 1    
   132   67   69 1    
   133   67  143 1    
   134   68  144 1    
   135   68  145 1    
   136   68  146 1    
   137   69   70 am   BACKBONE|DICT|INTERRES
   138   69  147 1    
   139   70   71 2    
   140   70   72 1    
   141   72   73 1    
   142   72   74 1    
   143   72  148 1    
   144   73  149 1    
   145   73  150 1    
   146   73  151 1    
   147   74   75 am   BACKBONE|DICT|INTERRES
   148   74  152 1    
   149   75   76 2    
   150   75   77 1    
   151   77   78 1    
   152   77   79 1    
   153   77  153 1    
   154   78  154 1    
   155   78  155 1    
   156   78  156 1    
   157   79   80 am   BACKBONE|DICT|INTERRES
   158   79  157 1    
   159   80   81 2    
@<TRIPOS>SUBSTRUCTURE
     1 UNK         1 GROUP             0       ****    0 ROOT    
