@<TRIPOS>MOLECULE
3R207
157   159    1
SMALL
USER_CHARGES


@<TRIPOS>ATOM
      1 CA        -50.1400  -32.1608    8.5009 C.3       0 UNK        -0.1975 
      2 C         -49.7708  -31.2732    7.3223 C.2       0 UNK         0.4852 
      3 O         -49.0353  -31.7059    6.4331 O.2       0 UNK        -0.5216 
      4 N         -50.2729  -30.0323    7.3089 N.am      1 UNK        -0.4461 
      5 CA        -50.0362  -29.0104    6.2815 C.3       1 UNK         0.0864 
      6 C6        -51.1327  -27.9164    6.3153 C.3       14 UNK        -0.0898 
      7 S7        -52.7622  -28.6116    5.8828 S.3       14 UNK        -0.2598 
      8 C8        -53.6275  -27.1427    5.2478 C.3       14 UNK         0.0286 
      9 C9        -54.0033  -26.1906    6.3721 C.ar      14 UNK        -0.0844 
     10 C10       -53.3430  -24.9684    6.5252 C.ar      14 UNK        -0.0881 
     11 C11       -53.6995  -24.0951    7.5579 C.ar      14 UNK        -0.0643 
     12 C12       -54.7251  -24.4519    8.4401 C.ar      14 UNK        -0.0930 
     13 C13       -55.3691  -25.6863    8.3133 C.ar      14 UNK        -0.0827 
     14 C14       -55.0167  -26.5412    7.2666 C.ar      14 UNK        -0.1249 
     15 C15       -56.4272  -26.1174    9.3183 C.3       14 UNK         0.0141 
     16 S16       -55.6868  -26.6699   10.8892 S.3       14 UNK        -0.2313 
     17 C17       -54.5212  -27.9637   10.3377 C.3       14 UNK        -0.0915 
     18 CA        -54.1759  -28.9964   11.4467 C.3       13 UNK         0.0968 
     19 C         -53.2787  -30.1589   10.9263 C.2       13 UNK         0.5732 
     20 N         -52.4193  -30.7547   11.7464 N.am      13 UNK        -0.7310 
     21 O         -53.3711  -30.5520    9.7657 O.2       13 UNK        -0.5035 
     22 N         -53.6055  -28.3577   12.6452 N.am      13 UNK        -0.4233 
     23 C         -54.1389  -28.4147   13.8709 C.2       13 UNK         0.4989 
     24 O         -55.2270  -28.9407   14.1162 O.2       13 UNK        -0.4996 
     25 CA        -53.3174  -27.7988   15.0250 C.3       12 UNK         0.0216 
     26 CB        -53.9172  -28.1094   16.4118 C.3       12 UNK        -0.1964 
     27 N         -51.8889  -28.1332   15.0319 N.am      12 UNK        -0.4276 
     28 C         -51.3190  -29.3422   14.9033 C.2       12 UNK         0.5020 
     29 O         -51.9333  -30.3689   14.6119 O.2       12 UNK        -0.5489 
     30 CA        -49.7981  -29.4353   15.1341 C.3       11 UNK         0.0294 
     31 CB        -49.0526  -29.4036   13.7936 C.3       11 UNK        -0.2019 
     32 N         -49.2694  -28.3761   15.9961 N.am      11 UNK        -0.4493 
     33 C         -49.4961  -28.2718   17.3133 C.2       11 UNK         0.4932 
     34 O         -50.0989  -29.1178   17.9740 O.2       11 UNK        -0.5029 
     35 CA        -48.9792  -26.9977   18.0117 C.3       10 UNK         0.0280 
     36 CB        -47.6380  -27.2765   18.7096 C.3       10 UNK        -0.1976 
     37 N         -48.8317  -25.8341   17.1251 N.am      10 UNK        -0.4242 
     38 C         -49.8279  -25.2628   16.4335 C.2       10 UNK         0.5072 
     39 O         -50.9883  -25.6785   16.4407 O.2       10 UNK        -0.5224 
     40 CA        -49.4408  -24.0778   15.5379 C.3       9 UNK         0.0343 
     41 CB        -48.7729  -24.5796   14.2444 C.3       9 UNK        -0.2003 
     42 N         -50.6305  -23.3015   15.1882 N.am      9 UNK        -0.4272 
     43 C         -51.0934  -22.2604   15.8947 C.2       9 UNK         0.4988 
     44 O         -50.5230  -21.8085   16.8890 O.2       9 UNK        -0.5108 
     45 CA        -52.3899  -21.5762   15.4173 C.3       8 UNK         0.0248 
     46 CB        -52.0652  -20.2350   14.7377 C.3       8 UNK        -0.2001 
     47 N         -53.1820  -22.3917   14.4952 N.am      8 UNK        -0.4140 
     48 C         -53.9938  -23.3942   14.8584 C.2       8 UNK         0.5028 
     49 O         -54.2247  -23.7017   16.0279 O.2       8 UNK        -0.5428 
     50 CA        -54.6671  -24.1907   13.7223 C.3       7 UNK         0.0264 
     51 CB        -56.0718  -23.6317   13.4428 C.3       7 UNK        -0.1988 
     52 N         -53.9134  -24.2367   12.4614 N.am      7 UNK        -0.4454 
     53 C         -52.6512  -24.6646   12.3071 C.2       7 UNK         0.5027 
     54 O         -51.9462  -25.0355   13.2458 O.2       7 UNK        -0.5083 
     55 CA        -52.0797  -24.5984   10.8743 C.3       6 UNK         0.0844 
     56 C56       -52.0320  -23.1299   10.3712 C.3       14 UNK        -0.0967 
     57 S57       -51.4188  -22.9728    8.6573 S.3       14 UNK        -0.2604 
     58 C58       -52.9666  -22.7719    7.7181 C.3       14 UNK         0.0134 
     59 N         -50.7615  -25.2231   10.7673 N.am      6 UNK        -0.4116 
     60 C         -50.4585  -26.5189   10.8874 C.2       5 UNK         0.5034 
     61 O         -51.2804  -27.3860   11.1831 O.2       5 UNK        -0.5045 
     62 CA        -48.9871  -26.9142   10.6209 C.3       5 UNK         0.0224 
     63 CB        -48.8322  -28.4106   10.2933 C.3       5 UNK        -0.1978 
     64 N         -48.3383  -26.1432    9.5502 N.am      5 UNK        -0.4737 
     65 C         -47.9306  -24.8701    9.6283 C.2       4 UNK         0.5027 
     66 O         -48.0969  -24.1658   10.6253 O.2       4 UNK        -0.5211 
     67 CA        -47.2428  -24.3011    8.3749 C.3       4 UNK         0.0297 
     68 CB        -46.7907  -22.8353    8.5454 C.3       4 UNK        -0.1993 
     69 N         -46.1310  -25.1466    7.9249 N.am      4 UNK        -0.4486 
     70 C         -45.0271  -25.4860    8.6120 C.2       3 UNK         0.4961 
     71 O         -44.7628  -25.0739    9.7425 O.2       3 UNK        -0.5105 
     72 CA        -44.0377  -26.4326    7.8978 C.3       3 UNK         0.0299 
     73 CB        -43.1508  -27.2291    8.8797 C.3       3 UNK        -0.1972 
     74 N         -44.6847  -27.3213    6.9222 N.am      3 UNK        -0.4305 
     75 C         -45.5924  -28.2761    7.1748 C.2       2 UNK         0.5006 
     76 O         -45.9541  -28.6199    8.3013 O.2       2 UNK        -0.5106 
     77 CA        -46.1874  -28.9657    5.9367 C.3       2 UNK         0.0296 
     78 CB        -45.4227  -30.2636    5.6301 C.3       2 UNK        -0.2002 
     79 N         -47.6146  -29.2726    6.0595 N.am      2 UNK        -0.4032 
     80 C         -48.6072  -28.4239    6.3635 C.2       1 UNK         0.5000 
     81 O         -48.4351  -27.2428    6.6808 O.2       1 UNK        -0.5238 
     82 H82       -50.7943  -31.6476    9.2050 H         1 UNK         0.0889 
     83 H83       -49.2414  -32.4688    9.0346 H         1 UNK         0.0889 
     84 H84       -50.6543  -33.0553    8.1505 H         1 UNK         0.0889 
     85 H85       -50.8965  -29.7511    8.0525 H         1 UNK         0.3028 
     86 H86       -50.1016  -29.4990    5.3064 H         1 UNK         0.0864 
     87 H87       -51.1929  -27.4462    7.2992 H         1 UNK         0.0720 
     88 H88       -50.8998  -27.1206    5.6052 H         1 UNK         0.0720 
     89 H89       -54.5350  -27.4640    4.7345 H         1 UNK         0.0814 
     90 H90       -53.0131  -26.6453    4.4958 H         1 UNK         0.0814 
     91 H91       -52.5473  -24.6960    5.8453 H         1 UNK         0.1469 
     92 H92       -55.0040  -23.7833    9.2418 H         1 UNK         0.1381 
     93 H93       -55.5128  -27.4963    7.1601 H         1 UNK         0.1206 
     94 H94       -57.1052  -25.2864    9.5173 H         1 UNK         0.0813 
     95 H95       -57.0416  -26.9220    8.9112 H         1 UNK         0.0813 
     96 H96       -53.6180  -27.4814    9.9623 H         1 UNK         0.0638 
     97 H97       -54.9704  -28.4739    9.4843 H         1 UNK         0.0638 
     98 H98       -55.1132  -29.4890   11.7083 H         1 UNK         0.0568 
     99 H99       -51.8633  -31.5181   11.4008 H         1 UNK         0.3450 
    100 H100      -52.3578  -30.4915   12.7253 H         1 UNK         0.3450 
    101 H101      -52.6940  -27.9341   12.5001 H         1 UNK         0.2987 
    102 H102      -53.3563  -26.7193   14.8904 H         1 UNK         0.0766 
    103 H103      -53.9103  -29.1799   16.6207 H         1 UNK         0.0798 
    104 H104      -54.9498  -27.7652   16.4819 H         1 UNK         0.0798 
    105 H105      -53.3578  -27.6095   17.2031 H         1 UNK         0.0798 
    106 H106      -51.2924  -27.3527   15.2880 H         1 UNK         0.3198 
    107 H107      -49.5995  -30.3958   15.6148 H         1 UNK         0.0843 
    108 H108      -49.1957  -28.4504   13.2851 H         1 UNK         0.0831 
    109 H109      -49.4138  -30.1910   13.1304 H         1 UNK         0.0831 
    110 H110      -47.9820  -29.5596   13.9268 H         1 UNK         0.0831 
    111 H111      -48.7405  -27.6430   15.5480 H         1 UNK         0.3133 
    112 H112      -49.7118  -26.7317   18.7765 H         1 UNK         0.0566 
    113 H113      -46.8523  -27.5205   17.9934 H         1 UNK         0.0814 
    114 H114      -47.7237  -28.1191   19.3976 H         1 UNK         0.0814 
    115 H115      -47.3070  -26.4180   19.2943 H         1 UNK         0.0814 
    116 H116      -47.9051  -25.4375   17.0544 H         1 UNK         0.3091 
    117 H117      -48.7306  -23.4449   16.0744 H         1 UNK         0.0702 
    118 H118      -48.5679  -23.7581   13.5574 H         1 UNK         0.0785 
    119 H119      -49.3957  -25.3028   13.7176 H         1 UNK         0.0785 
    120 H120      -47.8200  -25.0660   14.4552 H         1 UNK         0.0785 
    121 H121      -51.2117  -23.7074   14.4610 H         1 UNK         0.2998 
    122 H122      -52.9932  -21.3692   16.3039 H         1 UNK         0.0697 
    123 H123      -52.9733  -19.7025   14.4544 H         1 UNK         0.0825 
    124 H124      -51.4601  -20.3717   13.8404 H         1 UNK         0.0825 
    125 H125      -51.5066  -19.5819   15.4098 H         1 UNK         0.0825 
    126 H126      -53.0714  -22.2023   13.5106 H         1 UNK         0.3029 
    127 H127      -54.7854  -25.2174   14.0682 H         1 UNK         0.0897 
    128 H128      -56.0322  -22.6148   13.0503 H         1 UNK         0.0792 
    129 H129      -56.6701  -23.6056   14.3548 H         1 UNK         0.0792 
    130 H130      -56.6112  -24.2498   12.7248 H         1 UNK         0.0792 
    131 H131      -54.4331  -23.9749   11.6372 H         1 UNK         0.3086 
    132 H132      -52.7535  -25.1711   10.2362 H         1 UNK         0.0583 
    133 H133      -53.0108  -22.6527   10.4340 H         1 UNK         0.1020 
    134 H134      -51.3738  -22.5362   11.0092 H         1 UNK         0.1020 
    135 H135      -53.6045  -22.0289    8.1992 H         1 UNK         0.0694 
    136 H136      -52.7262  -22.3685    6.7333 H         1 UNK         0.0694 
    137 H137      -49.9867  -24.5920   10.5941 H         1 UNK         0.2989 
    138 H138      -48.4494  -26.7182   11.5508 H         1 UNK         0.1055 
    139 H139      -49.2418  -28.6379    9.3129 H         1 UNK         0.0806 
    140 H140      -49.3487  -29.0490   11.0084 H         1 UNK         0.0806 
    141 H141      -47.7839  -28.7087   10.2949 H         1 UNK         0.0806 
    142 H142      -48.1996  -26.6269    8.6680 H         1 UNK         0.3061 
    143 H143      -47.9907  -24.3239    7.5802 H         1 UNK         0.0734 
    144 H144      -46.0669  -22.7241    9.3533 H         1 UNK         0.0832 
    145 H145      -46.3376  -22.4500    7.6322 H         1 UNK         0.0832 
    146 H146      -47.6404  -22.1933    8.7817 H         1 UNK         0.0832 
    147 H147      -46.2622  -25.5790    7.0208 H         1 UNK         0.3156 
    148 H148      -43.3771  -25.7856    7.3188 H         1 UNK         0.0589 
    149 H149      -42.4645  -27.8895    8.3499 H         1 UNK         0.0808 
    150 H150      -42.5455  -26.5589    9.4913 H         1 UNK         0.0808 
    151 H151      -43.7452  -27.8384    9.5613 H         1 UNK         0.0808 
    152 H152      -44.4460  -27.1414    5.9559 H         1 UNK         0.3098 
    153 H153      -46.0843  -28.2936    5.0825 H         1 UNK         0.0720 
    154 H154      -45.5322  -30.9920    6.4349 H         1 UNK         0.0791 
    155 H155      -44.3558  -30.0724    5.5058 H         1 UNK         0.0791 
    156 H156      -45.7770  -30.7264    4.7087 H         1 UNK         0.0791 
    157 H157      -47.8818  -30.2439    5.9243 H         1 UNK         0.3028 
@<TRIPOS>BOND
     1    1    2 1    
     2    1   82 1    
     3    1   83 1    
     4    1   84 1    
     5    2    3 2    
     6    2    4 am   BACKBONE|DICT|INTERRES
     7    4    5 1    
     8    4   85 1    
     9    5    6 1    
    10    5   80 1    
    11    5   86 1    
    12    6    7 1    
    13    6   87 1    
    14    6   88 1    
    15    7    8 1    
    16    8    9 1    
    17    8   89 1    
    18    8   90 1    
    19    9   10 ar   
    20    9   14 ar   
    21   10   11 ar   
    22   10   91 1    
    23   11   12 ar   
    24   11   58 1    
    25   12   13 ar   
    26   12   92 1    
    27   13   14 ar   
    28   13   15 1    
    29   14   93 1    
    30   15   16 1    
    31   15   94 1    
    32   15   95 1    
    33   16   17 1    
    34   17   18 1    
    35   17   96 1    
    36   17   97 1    
    37   18   19 1    
    38   18   22 1    
    39   18   98 1    
    40   19   20 am   BACKBONE|DICT|INTERRES
    41   19   21 2    
    42   20   99 1    
    43   20  100 1    
    44   22   23 am   BACKBONE|DICT|INTERRES
    45   22  101 1    
    46   23   24 2    
    47   23   25 1    
    48   25   26 1    
    49   25   27 1    
    50   25  102 1    
    51   26  103 1    
    52   26  104 1    
    53   26  105 1    
    54   27   28 am   BACKBONE|DICT|INTERRES
    55   27  106 1    
    56   28   29 2    
    57   28   30 1    
    58   30   31 1    
    59   30   32 1    
    60   30  107 1    
    61   31  108 1    
    62   31  109 1    
    63   31  110 1    
    64   32   33 am   BACKBONE|DICT|INTERRES
    65   32  111 1    
    66   33   34 2    
    67   33   35 1    
    68   35   36 1    
    69   35   37 1    
    70   35  112 1    
    71   36  113 1    
    72   36  114 1    
    73   36  115 1    
    74   37   38 am   BACKBONE|DICT|INTERRES
    75   37  116 1    
    76   38   39 2    
    77   38   40 1    
    78   40   41 1    
    79   40   42 1    
    80   40  117 1    
    81   41  118 1    
    82   41  119 1    
    83   41  120 1    
    84   42   43 am   BACKBONE|DICT|INTERRES
    85   42  121 1    
    86   43   44 2    
    87   43   45 1    
    88   45   46 1    
    89   45   47 1    
    90   45  122 1    
    91   46  123 1    
    92   46  124 1    
    93   46  125 1    
    94   47   48 am   BACKBONE|DICT|INTERRES
    95   47  126 1    
    96   48   49 2    
    97   48   50 1    
    98   50   51 1    
    99   50   52 1    
   100   50  127 1    
   101   51  128 1    
   102   51  129 1    
   103   51  130 1    
   104   52   53 am   BACKBONE|DICT|INTERRES
   105   52  131 1    
   106   53   54 2    
   107   53   55 1    
   108   55   56 1    
   109   55   59 1    
   110   55  132 1    
   111   56   57 1    
   112   56  133 1    
   113   56  134 1    
   114   57   58 1    
   115   58  135 1    
   116   58  136 1    
   117   59   60 am   BACKBONE|DICT|INTERRES
   118   59  137 1    
   119   60   61 2    
   120   60   62 1    
   121   62   63 1    
   122   62   64 1    
   123   62  138 1    
   124   63  139 1    
   125   63  140 1    
   126   63  141 1    
   127   64   65 am   BACKBONE|DICT|INTERRES
   128   64  142 1    
   129   65   66 2    
   130   65   67 1    
   131   67   68 1    
   132   67   69 1    
   133   67  143 1    
   134   68  144 1    
   135   68  145 1    
   136   68  146 1    
   137   69   70 am   BACKBONE|DICT|INTERRES
   138   69  147 1    
   139   70   71 2    
   140   70   72 1    
   141   72   73 1    
   142   72   74 1    
   143   72  148 1    
   144   73  149 1    
   145   73  150 1    
   146   73  151 1    
   147   74   75 am   BACKBONE|DICT|INTERRES
   148   74  152 1    
   149   75   76 2    
   150   75   77 1    
   151   77   78 1    
   152   77   79 1    
   153   77  153 1    
   154   78  154 1    
   155   78  155 1    
   156   78  156 1    
   157   79   80 am   BACKBONE|DICT|INTERRES
   158   79  157 1    
   159   80   81 2    
@<TRIPOS>SUBSTRUCTURE
     1 UNK         1 GROUP             0       ****    0 ROOT    
