@<TRIPOS>MOLECULE
3R207
157   159    1
SMALL
USER_CHARGES


@<TRIPOS>ATOM
      1 CA        -45.5485  -30.0144    2.1497 C.3       0 UNK        -0.1975 
      2 C         -46.8290  -29.4342    2.7320 C.2       0 UNK         0.4852 
      3 O         -47.5174  -28.6724    2.0522 O.2       0 UNK        -0.5216 
      4 N         -47.1525  -29.7935    3.9825 N.am      1 UNK        -0.4461 
      5 CA        -48.3288  -29.3190    4.7235 C.3       1 UNK         0.0864 
      6 C6        -48.5611  -30.1844    5.9872 C.3       14 UNK        -0.0898 
      7 S7        -50.2598  -30.0639    6.6328 S.3       14 UNK        -0.2598 
      8 C8        -49.9390  -29.1446    8.1639 C.3       14 UNK         0.0286 
      9 C9        -51.2231  -28.6390    8.7911 C.ar      14 UNK        -0.0844 
     10 C10       -51.7831  -27.4457    8.3344 C.ar      14 UNK        -0.0881 
     11 C11       -52.9143  -26.9120    8.9549 C.ar      14 UNK        -0.0643 
     12 C12       -53.5163  -27.6061   10.0079 C.ar      14 UNK        -0.0930 
     13 C13       -52.9688  -28.8077   10.4665 C.ar      14 UNK        -0.0827 
     14 C14       -51.8213  -29.3219    9.8535 C.ar      14 UNK        -0.1249 
     15 C15       -53.5911  -29.5266   11.6509 C.3       14 UNK         0.0141 
     16 S16       -55.1011  -30.4132   11.1695 S.3       14 UNK        -0.2313 
     17 C17       -55.3614  -31.4732   12.6289 C.3       14 UNK        -0.0915 
     18 CA        -56.5310  -30.9993   13.5295 C.3       13 UNK         0.0968 
     19 C         -56.8921  -32.1049   14.5669 C.2       13 UNK         0.5732 
     20 N         -56.6320  -31.9228   15.8566 N.am      13 UNK        -0.7310 
     21 O         -57.4236  -33.1472   14.1912 O.2       13 UNK        -0.5035 
     22 N         -56.2794  -29.6678   14.1125 N.am      13 UNK        -0.4233 
     23 C         -57.2227  -28.9153   14.6945 C.2       13 UNK         0.4989 
     24 O         -58.4174  -29.2140   14.7264 O.2       13 UNK        -0.4996 
     25 CA        -56.7595  -27.6242   15.3845 C.3       12 UNK         0.0216 
     26 CB        -56.2530  -27.9241   16.8049 C.3       12 UNK        -0.1964 
     27 N         -55.7333  -26.8843   14.6449 N.am      12 UNK        -0.4276 
     28 C         -55.9893  -26.1355   13.5598 C.2       12 UNK         0.5020 
     29 O         -57.0764  -26.1469   12.9791 O.2       12 UNK        -0.5489 
     30 CA        -54.8744  -25.1915   13.0472 C.3       11 UNK         0.0294 
     31 CB        -55.4438  -23.9005   12.4239 C.3       11 UNK        -0.2019 
     32 N         -53.8503  -24.8604   14.0445 N.am      11 UNK        -0.4493 
     33 C         -54.0169  -24.3238   15.2637 C.2       11 UNK         0.4932 
     34 O         -55.0934  -23.8986   15.6858 O.2       11 UNK        -0.5029 
     35 CA        -52.7750  -24.3092   16.1823 C.3       10 UNK         0.0280 
     36 CB        -53.1509  -24.3535   17.6780 C.3       10 UNK        -0.1976 
     37 N         -51.7976  -25.3650   15.8750 N.am      10 UNK        -0.4242 
     38 C         -52.0116  -26.6910   15.8173 C.2       10 UNK         0.5072 
     39 O         -53.1044  -27.2107   16.0516 O.2       10 UNK        -0.5224 
     40 CA        -50.8507  -27.5973   15.3597 C.3       9 UNK         0.0343 
     41 CB        -51.2567  -28.3945   14.1084 C.3       9 UNK        -0.2003 
     42 N         -49.6149  -26.8680   15.0666 N.am      9 UNK        -0.4272 
     43 C         -48.7254  -26.4641   15.9833 C.2       9 UNK         0.4988 
     44 O         -48.8146  -26.7199   17.1844 O.2       9 UNK        -0.5108 
     45 CA        -47.5592  -25.5929   15.4816 C.3       8 UNK         0.0248 
     46 CB        -46.4139  -26.4742   14.9597 C.3       8 UNK        -0.2001 
     47 N         -47.9558  -24.6257   14.4502 N.am      8 UNK        -0.4140 
     48 C         -48.8571  -23.6482   14.6340 C.2       8 UNK         0.5028 
     49 O         -49.4337  -23.4432   15.7020 O.2       8 UNK        -0.5428 
     50 CA        -49.2214  -22.7835   13.4166 C.3       7 UNK         0.0264 
     51 CB        -48.1392  -21.7263   13.1465 C.3       7 UNK        -0.1988 
     52 N         -49.4593  -23.5700   12.2057 N.am      7 UNK        -0.4454 
     53 C         -50.4214  -24.4945   12.0652 C.2       7 UNK         0.5027 
     54 O         -51.2363  -24.7796   12.9431 O.2       7 UNK        -0.5083 
     55 CA        -50.4394  -25.2731   10.7352 C.3       6 UNK         0.0844 
     56 C56       -51.0330  -24.4206    9.5798 C.3       14 UNK        -0.0967 
     57 S57       -52.8514  -24.2533    9.6818 S.3       14 UNK        -0.2604 
     58 C58       -53.4327  -25.5471    8.5374 C.3       14 UNK         0.0134 
     59 N         -49.1155  -25.8231   10.4141 N.am      6 UNK        -0.4116 
     60 C         -48.4215  -26.6590   11.2046 C.2       5 UNK         0.5034 
     61 O         -48.8599  -27.1465   12.2455 O.2       5 UNK        -0.5045 
     62 CA        -46.9594  -26.9392   10.8196 C.3       5 UNK         0.0224 
     63 CB        -46.8330  -28.1279    9.8542 C.3       5 UNK        -0.1978 
     64 N         -46.3057  -25.7573   10.2558 N.am      5 UNK        -0.4737 
     65 C         -45.9655  -24.6778   10.9747 C.2       4 UNK         0.5027 
     66 O         -46.1078  -24.5976   12.1942 O.2       4 UNK        -0.5211 
     67 CA        -45.4269  -23.4676   10.1929 C.3       4 UNK         0.0297 
     68 CB        -43.9269  -23.6337    9.9035 C.3       4 UNK        -0.1993 
     69 N         -46.1508  -23.2467    8.9378 N.am      4 UNK        -0.4486 
     70 C         -47.4485  -22.9174    8.8618 C.2       3 UNK         0.4961 
     71 O         -48.1481  -22.6804    9.8450 O.2       3 UNK        -0.5105 
     72 CA        -48.0905  -22.8974    7.4627 C.3       3 UNK         0.0299 
     73 CB        -48.0353  -21.4817    6.8685 C.3       3 UNK        -0.1972 
     74 N         -47.4855  -23.8490    6.5244 N.am      3 UNK        -0.4305 
     75 C         -47.4749  -25.1813    6.6754 C.2       2 UNK         0.5006 
     76 O         -47.9899  -25.7679    7.6304 O.2       2 UNK        -0.5106 
     77 CA        -46.6586  -25.9571    5.6269 C.3       2 UNK         0.0296 
     78 CB        -45.1644  -25.9116    5.9922 C.3       2 UNK        -0.2002 
     79 N         -47.0478  -27.3591    5.4568 N.am      2 UNK        -0.4032 
     80 C         -48.2409  -27.8050    5.0351 C.2       1 UNK         0.5000 
     81 O         -49.2135  -27.0784    4.8210 O.2       1 UNK        -0.5238 
     82 H82       -45.0428  -30.6764    2.8524 H         1 UNK         0.0889 
     83 H83       -44.8602  -29.2122    1.8846 H         1 UNK         0.0889 
     84 H84       -45.7711  -30.5843    1.2480 H         1 UNK         0.0889 
     85 H85       -46.5509  -30.4372    4.4771 H         1 UNK         0.3028 
     86 H86       -49.1871  -29.4571    4.0617 H         1 UNK         0.0864 
     87 H87       -48.4054  -31.2371    5.7450 H         1 UNK         0.0720 
     88 H88       -47.8326  -29.9531    6.7670 H         1 UNK         0.0720 
     89 H89       -49.2966  -28.2916    7.9423 H         1 UNK         0.0814 
     90 H90       -49.3917  -29.7779    8.8635 H         1 UNK         0.0814 
     91 H91       -51.3070  -26.9118    7.5227 H         1 UNK         0.1469 
     92 H92       -54.3951  -27.1982   10.4863 H         1 UNK         0.1381 
     93 H93       -51.3835  -30.2430   10.2135 H         1 UNK         0.1206 
     94 H94       -52.8730  -30.2278   12.0788 H         1 UNK         0.0813 
     95 H95       -53.8297  -28.8059   12.4338 H         1 UNK         0.0813 
     96 H96       -54.4403  -31.5528   13.2087 H         1 UNK         0.0638 
     97 H97       -55.5585  -32.4767   12.2463 H         1 UNK         0.0638 
     98 H98       -57.4112  -30.9028   12.8907 H         1 UNK         0.0568 
     99 H99       -56.1927  -31.0766   16.1786 H         1 UNK         0.3450 
    100 H100      -56.8757  -32.6469   16.5137 H         1 UNK         0.3450 
    101 H101      -55.3216  -29.3559   14.1390 H         1 UNK         0.2987 
    102 H102      -57.6337  -26.9758   15.4788 H         1 UNK         0.0766 
    103 H103      -55.3698  -28.5640   16.7954 H         1 UNK         0.0798 
    104 H104      -55.9920  -27.0064   17.3329 H         1 UNK         0.0798 
    105 H105      -57.0182  -28.4306   17.3949 H         1 UNK         0.0798 
    106 H106      -54.8111  -26.8372   15.0710 H         1 UNK         0.3198 
    107 H107      -54.3510  -25.7348   12.2611 H         1 UNK         0.0843 
    108 H108      -56.0813  -24.1257   11.5682 H         1 UNK         0.0831 
    109 H109      -54.6469  -23.2482   12.0668 H         1 UNK         0.0831 
    110 H110      -56.0434  -23.3378   13.1399 H         1 UNK         0.0831 
    111 H111      -52.8933  -25.0766   13.7685 H         1 UNK         0.3133 
    112 H112      -52.2682  -23.3624   15.9918 H         1 UNK         0.0566 
    113 H113      -52.2632  -24.3274   18.3100 H         1 UNK         0.0814 
    114 H114      -53.7682  -23.4979   17.9544 H         1 UNK         0.0814 
    115 H115      -53.7132  -25.2547   17.9253 H         1 UNK         0.0814 
    116 H116      -50.8735  -25.0248   15.6335 H         1 UNK         0.3091 
    117 H117      -50.6584  -28.3073   16.1665 H         1 UNK         0.0702 
    118 H118      -50.4545  -29.0562   13.7811 H         1 UNK         0.0785 
    119 H119      -51.5040  -27.7352   13.2747 H         1 UNK         0.0785 
    120 H120      -52.1278  -29.0191   14.3081 H         1 UNK         0.0785 
    121 H121      -49.4341  -26.6677   14.0866 H         1 UNK         0.2998 
    122 H122      -47.1852  -25.0219   16.3338 H         1 UNK         0.0697 
    123 H123      -46.7272  -27.0774   14.1079 H         1 UNK         0.0825 
    124 H124      -46.0662  -27.1599   15.7335 H         1 UNK         0.0825 
    125 H125      -45.5583  -25.8738   14.6502 H         1 UNK         0.0825 
    126 H126      -47.4807  -24.6916   13.5530 H         1 UNK         0.3029 
    127 H127      -50.1521  -22.2628   13.6523 H         1 UNK         0.0897 
    128 H128      -48.4316  -21.0594   12.3351 H         1 UNK         0.0792 
    129 H129      -47.9679  -21.1086   14.0291 H         1 UNK         0.0792 
    130 H130      -47.1861  -22.1811   12.8756 H         1 UNK         0.0792 
    131 H131      -48.8617  -23.3661   11.4063 H         1 UNK         0.3086 
    132 H132      -51.0841  -26.1396   10.8902 H         1 UNK         0.0583 
    133 H133      -50.6066  -23.4172    9.5684 H         1 UNK         0.1020 
    134 H134      -50.7728  -24.8517    8.6129 H         1 UNK         0.1020 
    135 H135      -54.5236  -25.5525    8.5279 H         1 UNK         0.0694 
    136 H136      -53.1152  -25.3042    7.5221 H         1 UNK         0.0694 
    137 H137      -48.6859  -25.5223    9.5465 H         1 UNK         0.2989 
    138 H138      -46.4337  -27.2083   11.7380 H         1 UNK         0.1055 
    139 H139      -47.3670  -28.9992   10.2357 H         1 UNK         0.0806 
    140 H140      -45.7904  -28.4196    9.7278 H         1 UNK         0.0806 
    141 H141      -47.2320  -27.9010    8.8677 H         1 UNK         0.0806 
    142 H142      -46.2169  -25.7222    9.2504 H         1 UNK         0.3061 
    143 H143      -45.5597  -22.5823   10.8187 H         1 UNK         0.0734 
    144 H144      -43.3678  -23.7844   10.8282 H         1 UNK         0.0832 
    145 H145      -43.7285  -24.4919    9.2601 H         1 UNK         0.0832 
    146 H146      -43.5152  -22.7478    9.4198 H         1 UNK         0.0832 
    147 H147      -45.6440  -23.4027    8.0794 H         1 UNK         0.3156 
    148 H148      -49.1396  -23.1747    7.5778 H         1 UNK         0.0589 
    149 H149      -47.0094  -21.1515    6.7004 H         1 UNK         0.0808 
    150 H150      -48.5667  -21.4283    5.9181 H         1 UNK         0.0808 
    151 H151      -48.5037  -20.7596    7.5392 H         1 UNK         0.0808 
    152 H152      -47.0284  -23.4516    5.7157 H         1 UNK         0.3098 
    153 H153      -46.7980  -25.4674    4.6609 H         1 UNK         0.0720 
    154 H154      -44.5545  -26.3959    5.2290 H         1 UNK         0.0791 
    155 H155      -44.9664  -26.4084    6.9432 H         1 UNK         0.0791 
    156 H156      -44.8056  -24.8853    6.0790 H         1 UNK         0.0791 
    157 H157      -46.3192  -28.0413    5.6026 H         1 UNK         0.3028 
@<TRIPOS>BOND
     1    1    2 1    
     2    1   82 1    
     3    1   83 1    
     4    1   84 1    
     5    2    3 2    
     6    2    4 am   BACKBONE|DICT|INTERRES
     7    4    5 1    
     8    4   85 1    
     9    5    6 1    
    10    5   80 1    
    11    5   86 1    
    12    6    7 1    
    13    6   87 1    
    14    6   88 1    
    15    7    8 1    
    16    8    9 1    
    17    8   89 1    
    18    8   90 1    
    19    9   10 ar   
    20    9   14 ar   
    21   10   11 ar   
    22   10   91 1    
    23   11   12 ar   
    24   11   58 1    
    25   12   13 ar   
    26   12   92 1    
    27   13   14 ar   
    28   13   15 1    
    29   14   93 1    
    30   15   16 1    
    31   15   94 1    
    32   15   95 1    
    33   16   17 1    
    34   17   18 1    
    35   17   96 1    
    36   17   97 1    
    37   18   19 1    
    38   18   22 1    
    39   18   98 1    
    40   19   20 am   BACKBONE|DICT|INTERRES
    41   19   21 2    
    42   20   99 1    
    43   20  100 1    
    44   22   23 am   BACKBONE|DICT|INTERRES
    45   22  101 1    
    46   23   24 2    
    47   23   25 1    
    48   25   26 1    
    49   25   27 1    
    50   25  102 1    
    51   26  103 1    
    52   26  104 1    
    53   26  105 1    
    54   27   28 am   BACKBONE|DICT|INTERRES
    55   27  106 1    
    56   28   29 2    
    57   28   30 1    
    58   30   31 1    
    59   30   32 1    
    60   30  107 1    
    61   31  108 1    
    62   31  109 1    
    63   31  110 1    
    64   32   33 am   BACKBONE|DICT|INTERRES
    65   32  111 1    
    66   33   34 2    
    67   33   35 1    
    68   35   36 1    
    69   35   37 1    
    70   35  112 1    
    71   36  113 1    
    72   36  114 1    
    73   36  115 1    
    74   37   38 am   BACKBONE|DICT|INTERRES
    75   37  116 1    
    76   38   39 2    
    77   38   40 1    
    78   40   41 1    
    79   40   42 1    
    80   40  117 1    
    81   41  118 1    
    82   41  119 1    
    83   41  120 1    
    84   42   43 am   BACKBONE|DICT|INTERRES
    85   42  121 1    
    86   43   44 2    
    87   43   45 1    
    88   45   46 1    
    89   45   47 1    
    90   45  122 1    
    91   46  123 1    
    92   46  124 1    
    93   46  125 1    
    94   47   48 am   BACKBONE|DICT|INTERRES
    95   47  126 1    
    96   48   49 2    
    97   48   50 1    
    98   50   51 1    
    99   50   52 1    
   100   50  127 1    
   101   51  128 1    
   102   51  129 1    
   103   51  130 1    
   104   52   53 am   BACKBONE|DICT|INTERRES
   105   52  131 1    
   106   53   54 2    
   107   53   55 1    
   108   55   56 1    
   109   55   59 1    
   110   55  132 1    
   111   56   57 1    
   112   56  133 1    
   113   56  134 1    
   114   57   58 1    
   115   58  135 1    
   116   58  136 1    
   117   59   60 am   BACKBONE|DICT|INTERRES
   118   59  137 1    
   119   60   61 2    
   120   60   62 1    
   121   62   63 1    
   122   62   64 1    
   123   62  138 1    
   124   63  139 1    
   125   63  140 1    
   126   63  141 1    
   127   64   65 am   BACKBONE|DICT|INTERRES
   128   64  142 1    
   129   65   66 2    
   130   65   67 1    
   131   67   68 1    
   132   67   69 1    
   133   67  143 1    
   134   68  144 1    
   135   68  145 1    
   136   68  146 1    
   137   69   70 am   BACKBONE|DICT|INTERRES
   138   69  147 1    
   139   70   71 2    
   140   70   72 1    
   141   72   73 1    
   142   72   74 1    
   143   72  148 1    
   144   73  149 1    
   145   73  150 1    
   146   73  151 1    
   147   74   75 am   BACKBONE|DICT|INTERRES
   148   74  152 1    
   149   75   76 2    
   150   75   77 1    
   151   77   78 1    
   152   77   79 1    
   153   77  153 1    
   154   78  154 1    
   155   78  155 1    
   156   78  156 1    
   157   79   80 am   BACKBONE|DICT|INTERRES
   158   79  157 1    
   159   80   81 2    
@<TRIPOS>SUBSTRUCTURE
     1 UNK         1 GROUP             0       ****    0 ROOT    
