@<TRIPOS>MOLECULE
3R207
157   159    1
SMALL
USER_CHARGES


@<TRIPOS>ATOM
      1 CA        -49.7960  -32.3529    7.1675 C.3       0 UNK        -0.1975 
      2 C         -48.6664  -31.3449    7.0157 C.2       0 UNK         0.4852 
      3 O         -47.5549  -31.7237    6.6453 O.2       0 UNK        -0.5216 
      4 N         -48.9476  -30.0649    7.2961 N.am      1 UNK        -0.4461 
      5 CA        -47.9890  -28.9549    7.2287 C.3       1 UNK         0.0864 
      6 C6        -48.7039  -27.5791    7.2686 C.3       14 UNK        -0.0898 
      7 S7        -49.4727  -27.1382    5.6720 S.3       14 UNK        -0.2598 
      8 C8        -51.1279  -27.8998    5.7467 C.3       14 UNK         0.0286 
      9 C9        -52.0727  -27.1915    6.7076 C.ar      14 UNK        -0.0844 
     10 C10       -52.7477  -26.0349    6.3049 C.ar      14 UNK        -0.0881 
     11 C11       -53.6577  -25.4057    7.1613 C.ar      14 UNK        -0.0643 
     12 C12       -53.8983  -25.9496    8.4280 C.ar      14 UNK        -0.0930 
     13 C13       -53.2211  -27.1000    8.8446 C.ar      14 UNK        -0.0827 
     14 C14       -52.3112  -27.7161    7.9809 C.ar      14 UNK        -0.1249 
     15 C15       -53.4476  -27.6680   10.2358 C.3       14 UNK         0.0141 
     16 S16       -54.5543  -29.1061   10.2166 S.3       14 UNK        -0.2313 
     17 C17       -54.3997  -29.6703   11.9467 C.3       14 UNK        -0.0915 
     18 CA        -55.6176  -29.2793   12.8229 C.3       13 UNK         0.0968 
     19 C         -56.8624  -30.1569   12.5072 C.2       13 UNK         0.5732 
     20 N         -57.7849  -29.6653   11.6912 N.am      13 UNK        -0.7310 
     21 O         -56.9805  -31.2892   12.9733 O.2       13 UNK        -0.5035 
     22 N         -55.2562  -29.3221   14.2456 N.am      13 UNK        -0.4233 
     23 C         -56.0251  -28.9002   15.2550 C.2       13 UNK         0.4989 
     24 O         -57.1015  -28.3228   15.0959 O.2       13 UNK        -0.4996 
     25 CA        -55.5285  -29.1581   16.6913 C.3       12 UNK         0.0216 
     26 CB        -55.9844  -30.5441   17.1879 C.3       12 UNK        -0.1964 
     27 N         -54.0878  -28.9567   16.9128 N.am      12 UNK        -0.4276 
     28 C         -53.0420  -29.6372   16.4219 C.2       12 UNK         0.5020 
     29 O         -53.1496  -30.5843   15.6403 O.2       12 UNK        -0.5489 
     30 CA        -51.6482  -29.1390   16.8505 C.3       11 UNK         0.0294 
     31 CB        -50.5053  -29.8684   16.1190 C.3       11 UNK        -0.2019 
     32 N         -51.5361  -27.7018   16.5980 N.am      11 UNK        -0.4493 
     33 C         -51.7833  -26.7351   17.4956 C.2       11 UNK         0.4932 
     34 O         -52.0371  -26.9584   18.6790 O.2       11 UNK        -0.5029 
     35 CA        -51.8157  -25.2794   16.9862 C.3       10 UNK         0.0280 
     36 CB        -50.4465  -24.6119   17.1862 C.3       10 UNK        -0.1976 
     37 N         -52.2095  -25.1708   15.5787 N.am      10 UNK        -0.4242 
     38 C         -53.3907  -25.5765   15.0822 C.2       10 UNK         0.5072 
     39 O         -54.3443  -25.9038   15.7887 O.2       10 UNK        -0.5224 
     40 CA        -53.5276  -25.6956   13.5507 C.3       9 UNK         0.0343 
     41 CB        -54.4608  -24.6056   13.0021 C.3       9 UNK        -0.2003 
     42 N         -52.2503  -25.6584   12.8280 N.am      9 UNK        -0.4272 
     43 C         -51.2629  -26.5606   12.9644 C.2       9 UNK         0.4988 
     44 O         -51.3730  -27.5759   13.6498 O.2       9 UNK        -0.5108 
     45 CA        -49.9104  -26.2744   12.2819 C.3       8 UNK         0.0248 
     46 CB        -49.7483  -27.1445   11.0276 C.3       8 UNK        -0.2001 
     47 N         -49.6994  -24.8730   11.9123 N.am      8 UNK        -0.4140 
     48 C         -49.7331  -23.8215   12.7488 C.2       8 UNK         0.5028 
     49 O         -49.8558  -23.9268   13.9695 O.2       8 UNK        -0.5428 
     50 CA        -49.7061  -22.4175   12.1096 C.3       7 UNK         0.0264 
     51 CB        -48.2849  -21.8380   12.1678 C.3       7 UNK        -0.1988 
     52 N         -50.1879  -22.4062   10.7207 N.am      7 UNK        -0.4454 
     53 C         -51.4067  -22.8265   10.3376 C.2       7 UNK         0.5027 
     54 O         -52.3042  -23.0855   11.1397 O.2       7 UNK        -0.5083 
     55 CA        -51.6549  -23.1166    8.8418 C.3       6 UNK         0.0844 
     56 C56       -52.8651  -22.3220    8.2925 C.3       14 UNK        -0.0967 
     57 S57       -53.2470  -22.7194    6.5501 S.3       14 UNK        -0.2604 
     58 C58       -54.3791  -24.1404    6.7139 C.3       14 UNK         0.0134 
     59 N         -50.4665  -23.0151    7.9901 N.am      6 UNK        -0.4116 
     60 C         -49.4051  -23.8290    8.0493 C.2       5 UNK         0.5034 
     61 O         -49.2689  -24.7084    8.9037 O.2       5 UNK        -0.5045 
     62 CA        -48.2800  -23.6008    7.0230 C.3       5 UNK         0.0224 
     63 CB        -48.5353  -22.4432    6.0299 C.3       5 UNK        -0.1978 
     64 N         -46.9915  -23.4311    7.6991 N.am      5 UNK        -0.4737 
     65 C         -46.6699  -22.5061    8.6121 C.2       4 UNK         0.5027 
     66 O         -47.4284  -21.6050    8.9761 O.2       4 UNK        -0.5211 
     67 CA        -45.2744  -22.6518    9.2508 C.3       4 UNK         0.0297 
     68 CB        -44.8053  -21.3480    9.9227 C.3       4 UNK        -0.1993 
     69 N         -45.2331  -23.7347   10.2386 N.am      4 UNK        -0.4486 
     70 C         -45.3329  -25.0449    9.9761 C.2       3 UNK         0.4961 
     71 O         -45.4259  -25.5075    8.8360 O.2       3 UNK        -0.5105 
     72 CA        -45.3211  -26.0003   11.1801 C.3       3 UNK         0.0299 
     73 CB        -46.0103  -25.4213   12.4342 C.3       3 UNK        -0.1972 
     74 N         -45.9638  -27.2497   10.7818 N.am      3 UNK        -0.4305 
     75 C         -45.7332  -28.4566   11.3088 C.2       2 UNK         0.5006 
     76 O         -44.9494  -28.6464   12.2403 O.2       2 UNK        -0.5106 
     77 CA        -46.5026  -29.6659   10.7312 C.3       2 UNK         0.0296 
     78 CB        -47.3738  -30.3173   11.8208 C.3       2 UNK        -0.2002 
     79 N         -47.3491  -29.3937    9.5617 N.am      2 UNK        -0.4032 
     80 C         -46.9164  -29.0679    8.3340 C.2       1 UNK         0.5000 
     81 O         -45.7313  -28.8861    8.0538 O.2       1 UNK        -0.5238 
     82 H82       -49.5267  -33.1093    7.9044 H         1 UNK         0.0889 
     83 H83       -49.9815  -32.8536    6.2176 H         1 UNK         0.0889 
     84 H84       -50.7251  -31.8822    7.4889 H         1 UNK         0.0889 
     85 H85       -49.8825  -29.8222    7.5853 H         1 UNK         0.3028 
     86 H86       -47.4568  -29.0340    6.2776 H         1 UNK         0.0864 
     87 H87       -49.4457  -27.5320    8.0659 H         1 UNK         0.0720 
     88 H88       -47.9863  -26.7858    7.4879 H         1 UNK         0.0720 
     89 H89       -51.5586  -27.8714    4.7446 H         1 UNK         0.0814 
     90 H90       -51.0454  -28.9574    5.9944 H         1 UNK         0.0814 
     91 H91       -52.5647  -25.6210    5.3226 H         1 UNK         0.1469 
     92 H92       -54.5997  -25.4682    9.0956 H         1 UNK         0.1381 
     93 H93       -51.7991  -28.6121    8.3014 H         1 UNK         0.1206 
     94 H94       -53.8667  -26.9073   10.8935 H         1 UNK         0.0813 
     95 H95       -52.4915  -27.9657   10.6637 H         1 UNK         0.0813 
     96 H96       -54.2472  -30.7513   11.9511 H         1 UNK         0.0638 
     97 H97       -53.4858  -29.2477   12.3684 H         1 UNK         0.0638 
     98 H98       -55.8704  -28.2391   12.6080 H         1 UNK         0.0568 
     99 H99       -57.6834  -28.7488   11.2846 H         1 UNK         0.3450 
    100 H100      -58.5913  -30.2269   11.4680 H         1 UNK         0.3450 
    101 H101      -54.4153  -29.8381   14.4926 H         1 UNK         0.2987 
    102 H102      -56.0185  -28.4117   17.3187 H         1 UNK         0.0766 
    103 H103      -55.7157  -30.6998   18.2328 H         1 UNK         0.0798 
    104 H104      -57.0679  -30.6465   17.1132 H         1 UNK         0.0798 
    105 H105      -55.5437  -31.3526   16.6037 H         1 UNK         0.0798 
    106 H106      -53.8651  -28.1596   17.4952 H         1 UNK         0.3198 
    107 H107      -51.5438  -29.3439   17.9181 H         1 UNK         0.0843 
    108 H108      -50.5305  -30.9390   16.3263 H         1 UNK         0.0831 
    109 H109      -49.5306  -29.4996   16.4384 H         1 UNK         0.0831 
    110 H110      -50.5724  -29.7450   15.0375 H         1 UNK         0.0831 
    111 H111      -51.3996  -27.4466   15.6235 H         1 UNK         0.3133 
    112 H112      -52.5532  -24.7360   17.5802 H         1 UNK         0.0566 
    113 H113      -49.6686  -25.1040   16.6006 H         1 UNK         0.0814 
    114 H114      -50.1417  -24.6494   18.2330 H         1 UNK         0.0814 
    115 H115      -50.4700  -23.5621   16.8927 H         1 UNK         0.0814 
    116 H116      -51.4869  -24.8680   14.9330 H         1 UNK         0.3091 
    117 H117      -53.9855  -26.6664   13.3534 H         1 UNK         0.0702 
    118 H118      -54.6105  -24.7101   11.9275 H         1 UNK         0.0785 
    119 H119      -54.0640  -23.6069   13.1890 H         1 UNK         0.0785 
    120 H120      -55.4434  -24.6597   13.4727 H         1 UNK         0.0785 
    121 H121      -52.0896  -24.8367   12.2549 H         1 UNK         0.2998 
    122 H122      -49.1289  -26.5470   12.9939 H         1 UNK         0.0697 
    123 H123      -50.4495  -26.8513   10.2460 H         1 UNK         0.0825 
    124 H124      -49.9198  -28.1983   11.2499 H         1 UNK         0.0825 
    125 H125      -48.7452  -27.0519   10.6158 H         1 UNK         0.0825 
    126 H126      -49.5820  -24.6920   10.9194 H         1 UNK         0.3029 
    127 H127      -50.3681  -21.7770   12.6961 H         1 UNK         0.0897 
    128 H128      -48.2451  -20.8336   11.7458 H         1 UNK         0.0792 
    129 H129      -47.9327  -21.7720   13.1982 H         1 UNK         0.0792 
    130 H130      -47.5761  -22.4598   11.6211 H         1 UNK         0.0792 
    131 H131      -49.4969  -22.2115   10.0060 H         1 UNK         0.3086 
    132 H132      -51.9271  -24.1707    8.8255 H         1 UNK         0.0583 
    133 H133      -53.7551  -22.5071    8.8975 H         1 UNK         0.1020 
    134 H134      -52.6743  -21.2494    8.3606 H         1 UNK         0.1020 
    135 H135      -55.1880  -23.8847    7.4000 H         1 UNK         0.0694 
    136 H136      -54.8483  -24.3258    5.7467 H         1 UNK         0.0694 
    137 H137      -50.4948  -22.3076    7.2711 H         1 UNK         0.2989 
    138 H138      -48.2087  -24.5221    6.4445 H         1 UNK         0.1055 
    139 H139      -47.7167  -22.3587    5.3150 H         1 UNK         0.0806 
    140 H140      -48.6310  -21.4789    6.5306 H         1 UNK         0.0806 
    141 H141      -49.4432  -22.6124    5.4490 H         1 UNK         0.0806 
    142 H142      -46.3416  -24.2061    7.6046 H         1 UNK         0.3061 
    143 H143      -44.5675  -22.8873    8.4521 H         1 UNK         0.0734 
    144 H144      -44.8195  -20.5190    9.2137 H         1 UNK         0.0832 
    145 H145      -45.4452  -21.0684   10.7606 H         1 UNK         0.0832 
    146 H146      -43.7842  -21.4365   10.2940 H         1 UNK         0.0832 
    147 H147      -45.1651  -23.4503   11.2046 H         1 UNK         0.3156 
    148 H148      -44.2737  -26.2027   11.4126 H         1 UNK         0.0589 
    149 H149      -47.0187  -25.0784   12.2113 H         1 UNK         0.0808 
    150 H150      -46.0824  -26.1637   13.2292 H         1 UNK         0.0808 
    151 H151      -45.4553  -24.5775   12.8446 H         1 UNK         0.0808 
    152 H152      -46.5191  -27.1828    9.9397 H         1 UNK         0.3098 
    153 H153      -45.7490  -30.3937   10.4234 H         1 UNK         0.0720 
    154 H154      -47.8708  -31.2147   11.4518 H         1 UNK         0.0791 
    155 H155      -46.7702  -30.6179   12.6783 H         1 UNK         0.0791 
    156 H156      -48.1392  -29.6336   12.1894 H         1 UNK         0.0791 
    157 H157      -48.3386  -29.5446    9.6867 H         1 UNK         0.3028 
@<TRIPOS>BOND
     1    1    2 1    
     2    1   82 1    
     3    1   83 1    
     4    1   84 1    
     5    2    3 2    
     6    2    4 am   BACKBONE|DICT|INTERRES
     7    4    5 1    
     8    4   85 1    
     9    5    6 1    
    10    5   80 1    
    11    5   86 1    
    12    6    7 1    
    13    6   87 1    
    14    6   88 1    
    15    7    8 1    
    16    8    9 1    
    17    8   89 1    
    18    8   90 1    
    19    9   10 ar   
    20    9   14 ar   
    21   10   11 ar   
    22   10   91 1    
    23   11   12 ar   
    24   11   58 1    
    25   12   13 ar   
    26   12   92 1    
    27   13   14 ar   
    28   13   15 1    
    29   14   93 1    
    30   15   16 1    
    31   15   94 1    
    32   15   95 1    
    33   16   17 1    
    34   17   18 1    
    35   17   96 1    
    36   17   97 1    
    37   18   19 1    
    38   18   22 1    
    39   18   98 1    
    40   19   20 am   BACKBONE|DICT|INTERRES
    41   19   21 2    
    42   20   99 1    
    43   20  100 1    
    44   22   23 am   BACKBONE|DICT|INTERRES
    45   22  101 1    
    46   23   24 2    
    47   23   25 1    
    48   25   26 1    
    49   25   27 1    
    50   25  102 1    
    51   26  103 1    
    52   26  104 1    
    53   26  105 1    
    54   27   28 am   BACKBONE|DICT|INTERRES
    55   27  106 1    
    56   28   29 2    
    57   28   30 1    
    58   30   31 1    
    59   30   32 1    
    60   30  107 1    
    61   31  108 1    
    62   31  109 1    
    63   31  110 1    
    64   32   33 am   BACKBONE|DICT|INTERRES
    65   32  111 1    
    66   33   34 2    
    67   33   35 1    
    68   35   36 1    
    69   35   37 1    
    70   35  112 1    
    71   36  113 1    
    72   36  114 1    
    73   36  115 1    
    74   37   38 am   BACKBONE|DICT|INTERRES
    75   37  116 1    
    76   38   39 2    
    77   38   40 1    
    78   40   41 1    
    79   40   42 1    
    80   40  117 1    
    81   41  118 1    
    82   41  119 1    
    83   41  120 1    
    84   42   43 am   BACKBONE|DICT|INTERRES
    85   42  121 1    
    86   43   44 2    
    87   43   45 1    
    88   45   46 1    
    89   45   47 1    
    90   45  122 1    
    91   46  123 1    
    92   46  124 1    
    93   46  125 1    
    94   47   48 am   BACKBONE|DICT|INTERRES
    95   47  126 1    
    96   48   49 2    
    97   48   50 1    
    98   50   51 1    
    99   50   52 1    
   100   50  127 1    
   101   51  128 1    
   102   51  129 1    
   103   51  130 1    
   104   52   53 am   BACKBONE|DICT|INTERRES
   105   52  131 1    
   106   53   54 2    
   107   53   55 1    
   108   55   56 1    
   109   55   59 1    
   110   55  132 1    
   111   56   57 1    
   112   56  133 1    
   113   56  134 1    
   114   57   58 1    
   115   58  135 1    
   116   58  136 1    
   117   59   60 am   BACKBONE|DICT|INTERRES
   118   59  137 1    
   119   60   61 2    
   120   60   62 1    
   121   62   63 1    
   122   62   64 1    
   123   62  138 1    
   124   63  139 1    
   125   63  140 1    
   126   63  141 1    
   127   64   65 am   BACKBONE|DICT|INTERRES
   128   64  142 1    
   129   65   66 2    
   130   65   67 1    
   131   67   68 1    
   132   67   69 1    
   133   67  143 1    
   134   68  144 1    
   135   68  145 1    
   136   68  146 1    
   137   69   70 am   BACKBONE|DICT|INTERRES
   138   69  147 1    
   139   70   71 2    
   140   70   72 1    
   141   72   73 1    
   142   72   74 1    
   143   72  148 1    
   144   73  149 1    
   145   73  150 1    
   146   73  151 1    
   147   74   75 am   BACKBONE|DICT|INTERRES
   148   74  152 1    
   149   75   76 2    
   150   75   77 1    
   151   77   78 1    
   152   77   79 1    
   153   77  153 1    
   154   78  154 1    
   155   78  155 1    
   156   78  156 1    
   157   79   80 am   BACKBONE|DICT|INTERRES
   158   79  157 1    
   159   80   81 2    
@<TRIPOS>SUBSTRUCTURE
     1 UNK         1 GROUP             0       ****    0 ROOT    
