@<TRIPOS>MOLECULE
3R207
157   159    1
SMALL
USER_CHARGES


@<TRIPOS>ATOM
      1 CA        -49.7072  -24.3057    6.4621 C.3       0 UNK        -0.1975 
      2 C         -49.3921  -25.7345    6.8636 C.2       0 UNK         0.4852 
      3 O         -48.2514  -26.0257    7.2221 O.2       0 UNK        -0.5216 
      4 N         -50.3844  -26.6289    6.7712 N.am      1 UNK        -0.4461 
      5 CA        -50.2915  -28.0861    6.9533 C.3       1 UNK         0.0864 
      6 C6        -51.6348  -28.8032    6.6388 C.3       14 UNK        -0.0898 
      7 S7        -52.5481  -28.0832    5.2194 S.3       14 UNK        -0.2598 
      8 C8        -54.1215  -27.5324    5.9651 C.3       14 UNK         0.0286 
      9 C9        -53.9469  -26.5229    7.0962 C.ar      14 UNK        -0.0844 
     10 C10       -53.7975  -25.1552    6.8312 C.ar      14 UNK        -0.0881 
     11 C11       -53.7056  -24.2324    7.8832 C.ar      14 UNK        -0.0643 
     12 C12       -53.7450  -24.6939    9.2014 C.ar      14 UNK        -0.0930 
     13 C13       -53.8531  -26.0583    9.4768 C.ar      14 UNK        -0.0827 
     14 C14       -53.9837  -26.9621    8.4224 C.ar      14 UNK        -0.1249 
     15 C15       -53.8160  -26.5529   10.9128 C.3       14 UNK         0.0141 
     16 S16       -52.1587  -27.1718   11.3393 S.3       14 UNK        -0.2313 
     17 C17       -52.3034  -28.9534   10.9710 C.3       14 UNK        -0.0915 
     18 CA        -52.1623  -29.8788   12.2144 C.3       13 UNK         0.0968 
     19 C         -50.7092  -30.0873   12.7252 C.2       13 UNK         0.5732 
     20 N         -50.5037  -30.3945   14.0017 N.am      13 UNK        -0.7310 
     21 O         -49.7553  -30.0142   11.9562 O.2       13 UNK        -0.5035 
     22 N         -53.0935  -29.5345   13.2993 N.am      13 UNK        -0.4233 
     23 C         -54.2785  -30.1191   13.5029 C.2       13 UNK         0.4989 
     24 O         -54.7804  -30.9253   12.7169 O.2       13 UNK        -0.4996 
     25 CA        -55.0338  -29.7570   14.8006 C.3       12 UNK         0.0216 
     26 CB        -56.0058  -30.8709   15.2443 C.3       12 UNK        -0.1964 
     27 N         -54.1776  -29.3634   15.9293 N.am      12 UNK        -0.4276 
     28 C         -53.1684  -30.0560   16.4861 C.2       12 UNK         0.5020 
     29 O         -52.7736  -31.1424   16.0598 O.2       12 UNK        -0.5489 
     30 CA        -52.4533  -29.4214   17.6967 C.3       11 UNK         0.0294 
     31 CB        -50.9352  -29.6788   17.6616 C.3       11 UNK        -0.2019 
     32 N         -52.6771  -27.9771   17.7392 N.am      11 UNK        -0.4493 
     33 C         -53.3697  -27.3114   18.6733 C.2       11 UNK         0.4932 
     34 O         -53.8357  -27.8359   19.6847 O.2       11 UNK        -0.5029 
     35 CA        -53.6098  -25.8057   18.4312 C.3       10 UNK         0.0280 
     36 CB        -52.6036  -24.9680   19.2363 C.3       10 UNK        -0.1976 
     37 N         -53.5378  -25.4111   17.0199 N.am      10 UNK        -0.4242 
     38 C         -54.3389  -25.8699   16.0459 C.2       10 UNK         0.5072 
     39 O         -55.2974  -26.6159   16.2458 O.2       10 UNK        -0.5224 
     40 CA        -53.9592  -25.5122   14.5975 C.3       9 UNK         0.0343 
     41 CB        -54.7254  -24.2570   14.1513 C.3       9 UNK        -0.2003 
     42 N         -52.5177  -25.3120   14.3957 N.am      9 UNK        -0.4272 
     43 C         -51.5579  -26.2097   14.6823 C.2       9 UNK         0.4988 
     44 O         -51.8121  -27.3579   15.0498 O.2       9 UNK        -0.5108 
     45 CA        -50.0807  -25.7687   14.6003 C.3       8 UNK         0.0248 
     46 CB        -49.2506  -26.7256   13.7291 C.3       8 UNK        -0.2001 
     47 N         -49.8894  -24.3935   14.1323 N.am      8 UNK        -0.4140 
     48 C         -50.1642  -23.2913   14.8490 C.2       8 UNK         0.5028 
     49 O         -50.5520  -23.3244   16.0177 O.2       8 UNK        -0.5428 
     50 CA        -50.0443  -21.9261   14.1399 C.3       7 UNK         0.0264 
     51 CB        -48.7162  -21.2458   14.5089 C.3       7 UNK        -0.1988 
     52 N         -50.1535  -22.0029   12.6793 N.am      7 UNK        -0.4454 
     53 C         -51.2145  -22.4700   12.0022 C.2       7 UNK         0.5027 
     54 O         -52.2775  -22.7724   12.5436 O.2       7 UNK        -0.5083 
     55 CA        -51.0518  -22.7042   10.4827 C.3       6 UNK         0.0844 
     56 C56       -51.9127  -21.7011    9.6735 C.3       14 UNK        -0.0967 
     57 S57       -51.9401  -22.0585    7.8810 S.3       14 UNK        -0.2604 
     58 C58       -53.6128  -22.7357    7.6040 C.3       14 UNK         0.0134 
     59 N         -49.6514  -22.7571   10.0313 N.am      6 UNK        -0.4116 
     60 C         -48.7733  -23.6975   10.4113 C.2       5 UNK         0.5034 
     61 O         -49.0260  -24.5410   11.2729 O.2       5 UNK        -0.5045 
     62 CA        -47.3899  -23.6661    9.7393 C.3       5 UNK         0.0224 
     63 CB        -46.3864  -22.8136   10.5415 C.3       5 UNK        -0.1978 
     64 N         -46.9050  -25.0278    9.4774 N.am      5 UNK        -0.4737 
     65 C         -46.4196  -25.9411   10.3341 C.2       4 UNK         0.5027 
     66 O         -46.0603  -25.7057   11.4878 O.2       4 UNK        -0.5211 
     67 CA        -46.3370  -27.3849    9.8122 C.3       4 UNK         0.0297 
     68 CB        -47.6492  -28.1189   10.1317 C.3       4 UNK        -0.1993 
     69 N         -46.1010  -27.4386    8.3660 N.am      4 UNK        -0.4486 
     70 C         -44.9021  -27.6215    7.7992 C.2       3 UNK         0.4961 
     71 O         -43.8676  -27.7936    8.4465 O.2       3 UNK        -0.5105 
     72 CA        -44.8416  -27.6233    6.2601 C.3       3 UNK         0.0299 
     73 CB        -43.6114  -28.3799    5.7142 C.3       3 UNK        -0.1972 
     74 N         -46.0686  -28.1636    5.6693 N.am      3 UNK        -0.4305 
     75 C         -46.5147  -27.8995    4.4351 C.2       2 UNK         0.5006 
     76 O         -45.9356  -27.1530    3.6446 O.2       2 UNK        -0.5106 
     77 CA        -47.8331  -28.5655    3.9969 C.3       2 UNK         0.0296 
     78 CB        -47.6478  -30.0709    3.7186 C.3       2 UNK        -0.2002 
     79 N         -48.9530  -28.3017    4.9093 N.am      2 UNK        -0.4032 
     80 C         -49.1209  -28.7213    6.1723 C.2       1 UNK         0.5000 
     81 O         -48.3622  -29.5050    6.7462 O.2       1 UNK        -0.5238 
     82 H82       -50.7472  -24.1902    6.1577 H         1 UNK         0.0889 
     83 H83       -49.0748  -24.0041    5.6278 H         1 UNK         0.0889 
     84 H84       -49.5153  -23.6317    7.2935 H         1 UNK         0.0889 
     85 H85       -51.3033  -26.3127    6.4917 H         1 UNK         0.3028 
     86 H86       -50.0739  -28.2487    8.0104 H         1 UNK         0.0864 
     87 H87       -52.2636  -28.7796    7.5257 H         1 UNK         0.0720 
     88 H88       -51.4845  -29.8677    6.4469 H         1 UNK         0.0720 
     89 H89       -54.6672  -28.4077    6.3212 H         1 UNK         0.0814 
     90 H90       -54.7427  -27.0939    5.1827 H         1 UNK         0.0814 
     91 H91       -53.7814  -24.8080    5.8070 H         1 UNK         0.1469 
     92 H92       -53.6870  -23.9895   10.0186 H         1 UNK         0.1381 
     93 H93       -54.1052  -28.0141    8.6372 H         1 UNK         0.1206 
     94 H94       -54.0604  -25.7359   11.5897 H         1 UNK         0.0813 
     95 H95       -54.5731  -27.3203   11.0796 H         1 UNK         0.0813 
     96 H96       -51.5625  -29.2060   10.2108 H         1 UNK         0.0638 
     97 H97       -53.2680  -29.1468   10.5024 H         1 UNK         0.0638 
     98 H98       -52.4166  -30.8799   11.8621 H         1 UNK         0.0568 
     99 H99       -49.5607  -30.5467   14.3192 H         1 UNK         0.3450 
    100 H100      -51.2815  -30.5495   14.6304 H         1 UNK         0.3450 
    101 H101      -52.7326  -28.8747   13.9815 H         1 UNK         0.2987 
    102 H102      -55.6315  -28.8776   14.5567 H         1 UNK         0.0766 
    103 H103      -56.7431  -31.0850   14.4695 H         1 UNK         0.0798 
    104 H104      -55.4786  -31.8011   15.4597 H         1 UNK         0.0798 
    105 H105      -56.5570  -30.5829   16.1394 H         1 UNK         0.0798 
    106 H106      -54.4115  -28.4629   16.3352 H         1 UNK         0.3198 
    107 H107      -52.8625  -29.8994   18.5890 H         1 UNK         0.0843 
    108 H108      -50.7140  -30.7468   17.6704 H         1 UNK         0.0831 
    109 H109      -50.4407  -29.2417   18.5291 H         1 UNK         0.0831 
    110 H110      -50.4768  -29.2552   16.7671 H         1 UNK         0.0831 
    111 H111      -52.3485  -27.4774   16.9174 H         1 UNK         0.3133 
    112 H112      -54.6151  -25.5735   18.7884 H         1 UNK         0.0566 
    113 H113      -52.8138  -23.9018   19.1488 H         1 UNK         0.0814 
    114 H114      -52.6462  -25.2186   20.2973 H         1 UNK         0.0814 
    115 H115      -51.5789  -25.1366   18.9019 H         1 UNK         0.0814 
    116 H116      -52.7747  -24.8010   16.7582 H         1 UNK         0.3091 
    117 H117      -54.2639  -26.3498   13.9674 H         1 UNK         0.0702 
    118 H118      -54.5661  -24.0405   13.0959 H         1 UNK         0.0785 
    119 H119      -54.4208  -23.3767   14.7189 H         1 UNK         0.0785 
    120 H120      -55.7998  -24.3825   14.2932 H         1 UNK         0.0785 
    121 H121      -52.2395  -24.4057   14.0395 H         1 UNK         0.2998 
    122 H122      -49.6867  -25.8302   15.6167 H         1 UNK         0.0697 
    123 H123      -49.2919  -27.7437   14.1165 H         1 UNK         0.0825 
    124 H124      -48.2008  -26.4327   13.7033 H         1 UNK         0.0825 
    125 H125      -49.6094  -26.7534   12.7006 H         1 UNK         0.0825 
    126 H126      -49.5867  -24.2952   13.1666 H         1 UNK         0.3029 
    127 H127      -50.8649  -21.3021   14.5005 H         1 UNK         0.0897 
    128 H128      -48.6533  -20.2414   14.0897 H         1 UNK         0.0792 
    129 H129      -48.6151  -21.1492   15.5910 H         1 UNK         0.0792 
    130 H130      -47.8574  -21.8155   14.1512 H         1 UNK         0.0792 
    131 H131      -49.3226  -21.7758   12.1534 H         1 UNK         0.3086 
    132 H132      -51.4500  -23.7036   10.3035 H         1 UNK         0.0583 
    133 H133      -52.9384  -21.6822   10.0468 H         1 UNK         0.1020 
    134 H134      -51.5339  -20.6863    9.8090 H         1 UNK         0.1020 
    135 H135      -54.3405  -22.1973    8.2127 H         1 UNK         0.0694 
    136 H136      -53.8894  -22.5366    6.5676 H         1 UNK         0.0694 
    137 H137      -49.3853  -22.0746    9.3363 H         1 UNK         0.2989 
    138 H138      -47.5032  -23.2075    8.7559 H         1 UNK         0.1055 
    139 H139      -45.3877  -22.8614   10.1073 H         1 UNK         0.0806 
    140 H140      -46.3166  -23.1327   11.5819 H         1 UNK         0.0806 
    141 H141      -46.6868  -21.7653   10.5491 H         1 UNK         0.0806 
    142 H142      -47.2064  -25.3937    8.5764 H         1 UNK         0.3061 
    143 H143      -45.5295  -27.8918   10.3447 H         1 UNK         0.0734 
    144 H144      -47.8149  -28.1628   11.2091 H         1 UNK         0.0832 
    145 H145      -48.5119  -27.6129    9.6973 H         1 UNK         0.0832 
    146 H146      -47.6381  -29.1445    9.7626 H         1 UNK         0.0832 
    147 H147      -46.8943  -27.2035    7.7735 H         1 UNK         0.3156 
    148 H148      -44.7542  -26.5750    5.9674 H         1 UNK         0.0589 
    149 H149      -43.6377  -29.4347    5.9898 H         1 UNK         0.0808 
    150 H150      -43.5517  -28.3194    4.6276 H         1 UNK         0.0808 
    151 H151      -42.6835  -27.9610    6.1056 H         1 UNK         0.0808 
    152 H152      -46.6338  -28.7747    6.2553 H         1 UNK         0.3098 
    153 H153      -48.1171  -28.0995    3.0519 H         1 UNK         0.0720 
    154 H154      -48.5711  -30.5221    3.3551 H         1 UNK         0.0791 
    155 H155      -47.3329  -30.6216    4.6052 H         1 UNK         0.0791 
    156 H156      -46.8861  -30.2311    2.9545 H         1 UNK         0.0791 
    157 H157      -49.6357  -27.6411    4.5638 H         1 UNK         0.3028 
@<TRIPOS>BOND
     1    1    2 1    
     2    1   82 1    
     3    1   83 1    
     4    1   84 1    
     5    2    3 2    
     6    2    4 am   BACKBONE|DICT|INTERRES
     7    4    5 1    
     8    4   85 1    
     9    5    6 1    
    10    5   80 1    
    11    5   86 1    
    12    6    7 1    
    13    6   87 1    
    14    6   88 1    
    15    7    8 1    
    16    8    9 1    
    17    8   89 1    
    18    8   90 1    
    19    9   10 ar   
    20    9   14 ar   
    21   10   11 ar   
    22   10   91 1    
    23   11   12 ar   
    24   11   58 1    
    25   12   13 ar   
    26   12   92 1    
    27   13   14 ar   
    28   13   15 1    
    29   14   93 1    
    30   15   16 1    
    31   15   94 1    
    32   15   95 1    
    33   16   17 1    
    34   17   18 1    
    35   17   96 1    
    36   17   97 1    
    37   18   19 1    
    38   18   22 1    
    39   18   98 1    
    40   19   20 am   BACKBONE|DICT|INTERRES
    41   19   21 2    
    42   20   99 1    
    43   20  100 1    
    44   22   23 am   BACKBONE|DICT|INTERRES
    45   22  101 1    
    46   23   24 2    
    47   23   25 1    
    48   25   26 1    
    49   25   27 1    
    50   25  102 1    
    51   26  103 1    
    52   26  104 1    
    53   26  105 1    
    54   27   28 am   BACKBONE|DICT|INTERRES
    55   27  106 1    
    56   28   29 2    
    57   28   30 1    
    58   30   31 1    
    59   30   32 1    
    60   30  107 1    
    61   31  108 1    
    62   31  109 1    
    63   31  110 1    
    64   32   33 am   BACKBONE|DICT|INTERRES
    65   32  111 1    
    66   33   34 2    
    67   33   35 1    
    68   35   36 1    
    69   35   37 1    
    70   35  112 1    
    71   36  113 1    
    72   36  114 1    
    73   36  115 1    
    74   37   38 am   BACKBONE|DICT|INTERRES
    75   37  116 1    
    76   38   39 2    
    77   38   40 1    
    78   40   41 1    
    79   40   42 1    
    80   40  117 1    
    81   41  118 1    
    82   41  119 1    
    83   41  120 1    
    84   42   43 am   BACKBONE|DICT|INTERRES
    85   42  121 1    
    86   43   44 2    
    87   43   45 1    
    88   45   46 1    
    89   45   47 1    
    90   45  122 1    
    91   46  123 1    
    92   46  124 1    
    93   46  125 1    
    94   47   48 am   BACKBONE|DICT|INTERRES
    95   47  126 1    
    96   48   49 2    
    97   48   50 1    
    98   50   51 1    
    99   50   52 1    
   100   50  127 1    
   101   51  128 1    
   102   51  129 1    
   103   51  130 1    
   104   52   53 am   BACKBONE|DICT|INTERRES
   105   52  131 1    
   106   53   54 2    
   107   53   55 1    
   108   55   56 1    
   109   55   59 1    
   110   55  132 1    
   111   56   57 1    
   112   56  133 1    
   113   56  134 1    
   114   57   58 1    
   115   58  135 1    
   116   58  136 1    
   117   59   60 am   BACKBONE|DICT|INTERRES
   118   59  137 1    
   119   60   61 2    
   120   60   62 1    
   121   62   63 1    
   122   62   64 1    
   123   62  138 1    
   124   63  139 1    
   125   63  140 1    
   126   63  141 1    
   127   64   65 am   BACKBONE|DICT|INTERRES
   128   64  142 1    
   129   65   66 2    
   130   65   67 1    
   131   67   68 1    
   132   67   69 1    
   133   67  143 1    
   134   68  144 1    
   135   68  145 1    
   136   68  146 1    
   137   69   70 am   BACKBONE|DICT|INTERRES
   138   69  147 1    
   139   70   71 2    
   140   70   72 1    
   141   72   73 1    
   142   72   74 1    
   143   72  148 1    
   144   73  149 1    
   145   73  150 1    
   146   73  151 1    
   147   74   75 am   BACKBONE|DICT|INTERRES
   148   74  152 1    
   149   75   76 2    
   150   75   77 1    
   151   77   78 1    
   152   77   79 1    
   153   77  153 1    
   154   78  154 1    
   155   78  155 1    
   156   78  156 1    
   157   79   80 am   BACKBONE|DICT|INTERRES
   158   79  157 1    
   159   80   81 2    
@<TRIPOS>SUBSTRUCTURE
     1 UNK         1 GROUP             0       ****    0 ROOT    
