@<TRIPOS>MOLECULE
3R207
157   159    1
SMALL
USER_CHARGES


@<TRIPOS>ATOM
      1 CA        -51.5852  -26.0231    8.9654 C.3       0 UNK        -0.1975 
      2 C         -50.3618  -26.2709    8.0973 C.2       0 UNK         0.4852 
      3 O         -49.4069  -25.4945    8.1532 O.2       0 UNK        -0.5216 
      4 N         -50.3818  -27.3449    7.2946 N.am      1 UNK        -0.4461 
      5 CA        -49.3348  -27.7058    6.3268 C.3       1 UNK         0.0864 
      6 C6        -49.5534  -29.0970    5.6791 C.3       14 UNK        -0.0898 
      7 S7        -51.2766  -29.4326    5.1714 S.3       14 UNK        -0.2598 
      8 C8        -51.7208  -30.8132    6.2775 C.3       14 UNK         0.0286 
      9 C9        -51.8857  -30.3701    7.7261 C.ar      14 UNK        -0.0844 
     10 C10       -50.8540  -30.5586    8.6531 C.ar      14 UNK        -0.0881 
     11 C11       -51.0147  -30.1709    9.9875 C.ar      14 UNK        -0.0643 
     12 C12       -52.2276  -29.6069   10.3948 C.ar      14 UNK        -0.0930 
     13 C13       -53.2705  -29.4225    9.4811 C.ar      14 UNK        -0.0827 
     14 C14       -53.0891  -29.7971    8.1469 C.ar      14 UNK        -0.1249 
     15 C15       -54.5826  -28.7891    9.9217 C.3       14 UNK         0.0141 
     16 S16       -55.9559  -29.9784    9.9935 S.3       14 UNK        -0.2313 
     17 C17       -55.6938  -30.7624   11.6197 C.3       14 UNK        -0.0915 
     18 CA        -56.6902  -30.2483   12.6971 C.3       13 UNK         0.0968 
     19 C         -56.7225  -31.1986   13.9292 C.2       13 UNK         0.5732 
     20 N         -56.3720  -30.7531   15.1307 N.am      13 UNK        -0.7310 
     21 O         -57.0925  -32.3629   13.7959 O.2       13 UNK        -0.5035 
     22 N         -56.4368  -28.8420   13.0564 N.am      13 UNK        -0.4233 
     23 C         -57.3813  -27.9535   13.4001 C.2       13 UNK         0.4989 
     24 O         -58.5876  -28.2003   13.3620 O.2       13 UNK        -0.4996 
     25 CA        -56.9337  -26.5585   13.8952 C.3       12 UNK         0.0216 
     26 CB        -57.2247  -26.4039   15.3975 C.3       12 UNK        -0.1964 
     27 N         -55.5180  -26.2633   13.6620 N.am      12 UNK        -0.4276 
     28 C         -54.9714  -26.0349   12.4601 C.2       12 UNK         0.5020 
     29 O         -55.6327  -25.8863   11.4325 O.2       12 UNK        -0.5489 
     30 CA        -53.4315  -26.0123   12.3629 C.3       11 UNK         0.0294 
     31 CB        -52.9303  -24.5710   12.1809 C.3       11 UNK        -0.2019 
     32 N         -52.7185  -26.6225   13.4905 N.am      11 UNK        -0.4493 
     33 C         -52.8874  -27.8451   14.0129 C.2       11 UNK         0.4932 
     34 O         -53.6510  -28.6868   13.5444 O.2       11 UNK        -0.5029 
     35 CA        -52.1348  -28.1621   15.3187 C.3       10 UNK         0.0280 
     36 CB        -50.8922  -29.0187   15.0372 C.3       10 UNK        -0.1976 
     37 N         -51.7597  -26.9789   16.1076 N.am      10 UNK        -0.4242 
     38 C         -52.6144  -26.0769   16.6106 C.2       10 UNK         0.5072 
     39 O         -53.8330  -26.1317   16.4302 O.2       10 UNK        -0.5224 
     40 CA        -52.0464  -24.9062   17.4382 C.3       9 UNK         0.0343 
     41 CB        -52.0803  -25.2396   18.9423 C.3       9 UNK        -0.2003 
     42 N         -50.7243  -24.3949   17.0390 N.am      9 UNK        -0.4272 
     43 C         -49.5224  -24.9839   17.1102 C.2       9 UNK         0.4988 
     44 O         -49.3543  -26.1605   17.4354 O.2       9 UNK        -0.5108 
     45 CA        -48.3123  -24.1043   16.7269 C.3       8 UNK         0.0248 
     46 CB        -46.9767  -24.7092   17.1968 C.3       8 UNK        -0.2001 
     47 N         -48.2520  -23.8923   15.2810 N.am      8 UNK        -0.4140 
     48 C         -49.0880  -23.1109   14.5802 C.2       8 UNK         0.5028 
     49 O         -49.8887  -22.3351   15.1058 O.2       8 UNK        -0.5428 
     50 CA        -49.0812  -23.2545   13.0429 C.3       7 UNK         0.0264 
     51 CB        -48.2289  -22.1468   12.4049 C.3       7 UNK        -0.1988 
     52 N         -48.6200  -24.5595   12.5485 N.am      7 UNK        -0.4454 
     53 C         -49.0855  -25.7568   12.9471 C.2       7 UNK         0.5027 
     54 O         -50.0427  -25.8811   13.7076 O.2       7 UNK        -0.5083 
     55 CA        -48.3533  -27.0323   12.4685 C.3       6 UNK         0.0844 
     56 C56       -49.1613  -27.6773   11.3177 C.3       14 UNK        -0.0967 
     57 S57       -48.4833  -29.2684   10.7418 S.3       14 UNK        -0.2604 
     58 C58       -49.8919  -30.3987   10.9942 C.3       14 UNK         0.0134 
     59 N         -46.9583  -26.7961   12.0855 N.am      6 UNK        -0.4116 
     60 C         -46.0075  -26.1840   12.8076 C.2       5 UNK         0.5034 
     61 O         -46.1434  -25.8583   13.9878 O.2       5 UNK        -0.5045 
     62 CA        -44.7157  -25.7936   12.0604 C.3       5 UNK         0.0224 
     63 CB        -43.5637  -26.7301   12.4580 C.3       5 UNK        -0.1978 
     64 N         -44.8387  -25.7757   10.5932 N.am      5 UNK        -0.4737 
     65 C         -45.7125  -25.0466    9.8811 C.2       4 UNK         0.5027 
     66 O         -46.5101  -24.2540   10.3890 O.2       4 UNK        -0.5211 
     67 CA        -45.7386  -25.3280    8.3703 C.3       4 UNK         0.0297 
     68 CB        -46.0678  -26.8075    8.1024 C.3       4 UNK        -0.1993 
     69 N         -46.7401  -24.5004    7.6935 N.am      4 UNK        -0.4486 
     70 C         -46.4706  -23.3593    7.0486 C.2       3 UNK         0.4961 
     71 O         -45.3340  -22.8968    6.9278 O.2       3 UNK        -0.5105 
     72 CA        -47.6624  -22.6437    6.3913 C.3       3 UNK         0.0299 
     73 CB        -47.2492  -21.3653    5.6288 C.3       3 UNK        -0.1972 
     74 N         -48.3533  -23.5766    5.5016 N.am      3 UNK        -0.4305 
     75 C         -49.5905  -23.4334    5.0122 C.2       2 UNK         0.5006 
     76 O         -50.3009  -22.4489    5.2191 O.2       2 UNK        -0.5106 
     77 CA        -50.1543  -24.5965    4.1726 C.3       2 UNK         0.0296 
     78 CB        -49.4826  -24.6889    2.7873 C.3       2 UNK        -0.2002 
     79 N         -50.1368  -25.8753    4.8958 N.am      2 UNK        -0.4032 
     80 C         -49.0757  -26.6027    5.2784 C.2       1 UNK         0.5000 
     81 O         -47.9201  -26.3775    4.9139 O.2       1 UNK        -0.5238 
     82 H82       -51.3021  -26.0084   10.0158 H         1 UNK         0.0889 
     83 H83       -52.3463  -26.7894    8.8254 H         1 UNK         0.0889 
     84 H84       -52.0270  -25.0577    8.7206 H         1 UNK         0.0889 
     85 H85       -51.1733  -27.9751    7.3162 H         1 UNK         0.3028 
     86 H86       -48.4133  -27.7821    6.9018 H         1 UNK         0.0864 
     87 H87       -49.2345  -29.8665    6.3817 H         1 UNK         0.0720 
     88 H88       -48.9050  -29.2327    4.8110 H         1 UNK         0.0720 
     89 H89       -52.6556  -31.2533    5.9269 H         1 UNK         0.0814 
     90 H90       -50.9716  -31.6026    6.1980 H         1 UNK         0.0814 
     91 H91       -49.9224  -31.0109    8.3423 H         1 UNK         0.1469 
     92 H92       -52.3615  -29.3181   11.4267 H         1 UNK         0.1381 
     93 H93       -53.8926  -29.6529    7.4371 H         1 UNK         0.1206 
     94 H94       -54.4758  -28.3373   10.9038 H         1 UNK         0.0813 
     95 H95       -54.8449  -27.9821    9.2363 H         1 UNK         0.0813 
     96 H96       -55.8151  -31.8359   11.4636 H         1 UNK         0.0638 
     97 H97       -54.6614  -30.6240   11.9439 H         1 UNK         0.0638 
     98 H98       -57.6899  -30.3160   12.2639 H         1 UNK         0.0568 
     99 H99       -56.4068  -31.3808   15.9181 H         1 UNK         0.3450 
    100 H100      -56.0561  -29.8053   15.2516 H         1 UNK         0.3450 
    101 H101      -55.4558  -28.5964   13.1604 H         1 UNK         0.2987 
    102 H102      -57.5283  -25.8195   13.3541 H         1 UNK         0.0766 
    103 H103      -58.2794  -26.5786   15.6145 H         1 UNK         0.0798 
    104 H104      -56.9863  -25.3987   15.7461 H         1 UNK         0.0798 
    105 H105      -56.6462  -27.1096   15.9953 H         1 UNK         0.0798 
    106 H106      -54.8998  -26.3386   14.4627 H         1 UNK         0.3198 
    107 H107      -53.1581  -26.5780   11.4727 H         1 UNK         0.0843 
    108 H108      -53.1050  -23.9678   13.0727 H         1 UNK         0.0831 
    109 H109      -53.4370  -24.0802   11.3485 H         1 UNK         0.0831 
    110 H110      -51.8637  -24.5484   11.9627 H         1 UNK         0.0831 
    111 H111      -51.9615  -26.0730   13.8881 H         1 UNK         0.3133 
    112 H112      -52.8137  -28.7528   15.9367 H         1 UNK         0.0566 
    113 H113      -50.1613  -28.4799   14.4383 H         1 UNK         0.0814 
    114 H114      -51.1579  -29.9249   14.4912 H         1 UNK         0.0814 
    115 H115      -50.4053  -29.3286   15.9620 H         1 UNK         0.0814 
    116 H116      -50.7751  -26.8544   16.3260 H         1 UNK         0.3091 
    117 H117      -52.7302  -24.0709   17.2787 H         1 UNK         0.0702 
    118 H118      -51.7789  -24.3832   19.5456 H         1 UNK         0.0785 
    119 H119      -51.4226  -26.0734   19.1900 H         1 UNK         0.0785 
    120 H120      -53.0871  -25.5182   19.2566 H         1 UNK         0.0785 
    121 H121      -50.7306  -23.4609   16.6399 H         1 UNK         0.2998 
    122 H122      -48.4320  -23.1374   17.2204 H         1 UNK         0.0697 
    123 H123      -46.1400  -24.0484   16.9698 H         1 UNK         0.0825 
    124 H124      -46.7792  -25.6717   16.7227 H         1 UNK         0.0825 
    125 H125      -46.9795  -24.8712   18.2754 H         1 UNK         0.0825 
    126 H126      -47.6363  -24.5135   14.7678 H         1 UNK         0.3029 
    127 H127      -50.1117  -23.1262   12.7088 H         1 UNK         0.0897 
    128 H128      -48.5548  -21.1597   12.7362 H         1 UNK         0.0792 
    129 H129      -48.3058  -22.1646   11.3174 H         1 UNK         0.0792 
    130 H130      -47.1748  -22.2499   12.6663 H         1 UNK         0.0792 
    131 H131      -47.8526  -24.5344   11.8821 H         1 UNK         0.3086 
    132 H132      -48.3280  -27.7243   13.3110 H         1 UNK         0.0583 
    133 H133      -50.2042  -27.8154   11.6104 H         1 UNK         0.1020 
    134 H134      -49.1687  -27.0039   10.4633 H         1 UNK         0.1020 
    135 H135      -49.5352  -31.4252   10.8993 H         1 UNK         0.0694 
    136 H136      -50.2572  -30.2993   12.0176 H         1 UNK         0.0694 
    137 H137      -46.7253  -27.0422   11.1357 H         1 UNK         0.2989 
    138 H138      -44.4632  -24.7799   12.3791 H         1 UNK         0.1055 
    139 H139      -43.4272  -26.7441   13.5405 H         1 UNK         0.0806 
    140 H140      -42.6188  -26.4071   12.0205 H         1 UNK         0.0806 
    141 H141      -43.7493  -27.7570   12.1403 H         1 UNK         0.0806 
    142 H142      -44.2196  -26.3974   10.0919 H         1 UNK         0.3061 
    143 H143      -44.7438  -25.1190    7.9712 H         1 UNK         0.0734 
    144 H144      -47.0035  -27.1019    8.5791 H         1 UNK         0.0832 
    145 H145      -46.1524  -27.0024    7.0333 H         1 UNK         0.0832 
    146 H146      -45.2882  -27.4699    8.4794 H         1 UNK         0.0832 
    147 H147      -47.7123  -24.7807    7.8212 H         1 UNK         0.3156 
    148 H148      -48.3450  -22.3634    7.1962 H         1 UNK         0.0589 
    149 H149      -48.1146  -20.8293    5.2397 H         1 UNK         0.0808 
    150 H150      -46.5925  -21.5949    4.7890 H         1 UNK         0.0808 
    151 H151      -46.7161  -20.6745    6.2833 H         1 UNK         0.0808 
    152 H152      -47.8707  -24.4513    5.3069 H         1 UNK         0.3098 
    153 H153      -51.2093  -24.3761    4.0015 H         1 UNK         0.0720 
    154 H154      -49.6222  -23.7621    2.2295 H         1 UNK         0.0791 
    155 H155      -49.9140  -25.4936    2.1920 H         1 UNK         0.0791 
    156 H156      -48.4085  -24.8620    2.8554 H         1 UNK         0.0791 
    157 H157      -51.0294  -26.1579    5.2760 H         1 UNK         0.3028 
@<TRIPOS>BOND
     1    1    2 1    
     2    1   82 1    
     3    1   83 1    
     4    1   84 1    
     5    2    3 2    
     6    2    4 am   BACKBONE|DICT|INTERRES
     7    4    5 1    
     8    4   85 1    
     9    5    6 1    
    10    5   80 1    
    11    5   86 1    
    12    6    7 1    
    13    6   87 1    
    14    6   88 1    
    15    7    8 1    
    16    8    9 1    
    17    8   89 1    
    18    8   90 1    
    19    9   10 ar   
    20    9   14 ar   
    21   10   11 ar   
    22   10   91 1    
    23   11   12 ar   
    24   11   58 1    
    25   12   13 ar   
    26   12   92 1    
    27   13   14 ar   
    28   13   15 1    
    29   14   93 1    
    30   15   16 1    
    31   15   94 1    
    32   15   95 1    
    33   16   17 1    
    34   17   18 1    
    35   17   96 1    
    36   17   97 1    
    37   18   19 1    
    38   18   22 1    
    39   18   98 1    
    40   19   20 am   BACKBONE|DICT|INTERRES
    41   19   21 2    
    42   20   99 1    
    43   20  100 1    
    44   22   23 am   BACKBONE|DICT|INTERRES
    45   22  101 1    
    46   23   24 2    
    47   23   25 1    
    48   25   26 1    
    49   25   27 1    
    50   25  102 1    
    51   26  103 1    
    52   26  104 1    
    53   26  105 1    
    54   27   28 am   BACKBONE|DICT|INTERRES
    55   27  106 1    
    56   28   29 2    
    57   28   30 1    
    58   30   31 1    
    59   30   32 1    
    60   30  107 1    
    61   31  108 1    
    62   31  109 1    
    63   31  110 1    
    64   32   33 am   BACKBONE|DICT|INTERRES
    65   32  111 1    
    66   33   34 2    
    67   33   35 1    
    68   35   36 1    
    69   35   37 1    
    70   35  112 1    
    71   36  113 1    
    72   36  114 1    
    73   36  115 1    
    74   37   38 am   BACKBONE|DICT|INTERRES
    75   37  116 1    
    76   38   39 2    
    77   38   40 1    
    78   40   41 1    
    79   40   42 1    
    80   40  117 1    
    81   41  118 1    
    82   41  119 1    
    83   41  120 1    
    84   42   43 am   BACKBONE|DICT|INTERRES
    85   42  121 1    
    86   43   44 2    
    87   43   45 1    
    88   45   46 1    
    89   45   47 1    
    90   45  122 1    
    91   46  123 1    
    92   46  124 1    
    93   46  125 1    
    94   47   48 am   BACKBONE|DICT|INTERRES
    95   47  126 1    
    96   48   49 2    
    97   48   50 1    
    98   50   51 1    
    99   50   52 1    
   100   50  127 1    
   101   51  128 1    
   102   51  129 1    
   103   51  130 1    
   104   52   53 am   BACKBONE|DICT|INTERRES
   105   52  131 1    
   106   53   54 2    
   107   53   55 1    
   108   55   56 1    
   109   55   59 1    
   110   55  132 1    
   111   56   57 1    
   112   56  133 1    
   113   56  134 1    
   114   57   58 1    
   115   58  135 1    
   116   58  136 1    
   117   59   60 am   BACKBONE|DICT|INTERRES
   118   59  137 1    
   119   60   61 2    
   120   60   62 1    
   121   62   63 1    
   122   62   64 1    
   123   62  138 1    
   124   63  139 1    
   125   63  140 1    
   126   63  141 1    
   127   64   65 am   BACKBONE|DICT|INTERRES
   128   64  142 1    
   129   65   66 2    
   130   65   67 1    
   131   67   68 1    
   132   67   69 1    
   133   67  143 1    
   134   68  144 1    
   135   68  145 1    
   136   68  146 1    
   137   69   70 am   BACKBONE|DICT|INTERRES
   138   69  147 1    
   139   70   71 2    
   140   70   72 1    
   141   72   73 1    
   142   72   74 1    
   143   72  148 1    
   144   73  149 1    
   145   73  150 1    
   146   73  151 1    
   147   74   75 am   BACKBONE|DICT|INTERRES
   148   74  152 1    
   149   75   76 2    
   150   75   77 1    
   151   77   78 1    
   152   77   79 1    
   153   77  153 1    
   154   78  154 1    
   155   78  155 1    
   156   78  156 1    
   157   79   80 am   BACKBONE|DICT|INTERRES
   158   79  157 1    
   159   80   81 2    
@<TRIPOS>SUBSTRUCTURE
     1 UNK         1 GROUP             0       ****    0 ROOT    
