@<TRIPOS>MOLECULE
3R207
157   159    1
SMALL
USER_CHARGES


@<TRIPOS>ATOM
      1 CA        -44.2419  -28.7759    7.2444 C.3       0 UNK        -0.1975 
      2 C         -45.0309  -28.8274    5.9443 C.2       0 UNK         0.4852 
      3 O         -44.5493  -28.3509    4.9163 O.2       0 UNK        -0.5216 
      4 N         -46.2424  -29.3983    5.9847 N.am      1 UNK        -0.4461 
      5 CA        -47.1772  -29.5034    4.8548 C.3       1 UNK         0.0864 
      6 C6        -48.2877  -30.5522    5.1242 C.3       14 UNK        -0.0898 
      7 S7        -49.1331  -30.3247    6.7263 S.3       14 UNK        -0.2598 
      8 C8        -50.8236  -29.9074    6.2042 C.3       14 UNK         0.0286 
      9 C9        -51.6228  -29.3228    7.3598 C.ar      14 UNK        -0.0844 
     10 C10       -52.0322  -27.9886    7.3252 C.ar      14 UNK        -0.0881 
     11 C11       -52.7540  -27.4388    8.3879 C.ar      14 UNK        -0.0643 
     12 C12       -53.0583  -28.2316    9.4970 C.ar      14 UNK        -0.0930 
     13 C13       -52.6677  -29.5782    9.5444 C.ar      14 UNK        -0.0827 
     14 C14       -51.9554  -30.1120    8.4649 C.ar      14 UNK        -0.1249 
     15 C15       -52.9738  -30.5032   10.7258 C.3       14 UNK         0.0141 
     16 S16       -53.8109  -29.7368   12.1552 S.3       14 UNK        -0.2313 
     17 C17       -55.5410  -29.6171   11.5790 C.3       14 UNK        -0.0915 
     18 CA        -56.5805  -29.7627   12.7231 C.3       13 UNK         0.0968 
     19 C         -56.6814  -31.2241   13.2492 C.2       13 UNK         0.5732 
     20 N         -57.3223  -32.1069   12.4945 N.am      13 UNK        -0.7310 
     21 O         -56.1687  -31.5724   14.3119 O.2       13 UNK        -0.5035 
     22 N         -56.3415  -28.7665   13.7761 N.am      13 UNK        -0.4233 
     23 C         -57.1779  -28.4724   14.7785 C.2       13 UNK         0.4989 
     24 O         -58.3044  -28.9563   14.9006 O.2       13 UNK        -0.4996 
     25 CA        -56.6799  -27.4552   15.8215 C.3       12 UNK         0.0216 
     26 CB        -56.0570  -28.1854   17.0218 C.3       12 UNK        -0.1964 
     27 N         -55.7184  -26.4824   15.2860 N.am      12 UNK        -0.4276 
     28 C         -56.0424  -25.4984   14.4304 C.2       12 UNK         0.5020 
     29 O         -57.1852  -25.3370   13.9976 O.2       12 UNK        -0.5489 
     30 CA        -54.9224  -24.5418   13.9614 C.3       11 UNK         0.0294 
     31 CB        -55.4453  -23.1231   13.6532 C.3       11 UNK        -0.2019 
     32 N         -53.7603  -24.4771   14.8537 N.am      11 UNK        -0.4493 
     33 C         -53.7270  -24.1183   16.1463 C.2       11 UNK         0.4932 
     34 O         -54.7068  -23.7081   16.7706 O.2       11 UNK        -0.5029 
     35 CA        -52.3691  -24.2788   16.8643 C.3       10 UNK         0.0280 
     36 CB        -52.5184  -24.3935   18.3958 C.3       10 UNK        -0.1976 
     37 N         -51.5558  -25.3903   16.3480 N.am      10 UNK        -0.4242 
     38 C         -51.9128  -26.6827   16.2539 C.2       10 UNK         0.5072 
     39 O         -53.0145  -27.1044   16.6092 O.2       10 UNK        -0.5224 
     40 CA        -50.9198  -27.6749   15.6159 C.3       9 UNK         0.0343 
     41 CB        -51.5755  -28.4018   14.4329 C.3       9 UNK        -0.2003 
     42 N         -49.6823  -27.0522   15.1454 N.am      9 UNK        -0.4272 
     43 C         -48.6175  -26.7841   15.9118 C.2       9 UNK         0.4988 
     44 O         -48.5327  -27.0901   17.1014 O.2       9 UNK        -0.5108 
     45 CA        -47.4682  -26.0045   15.2479 C.3       8 UNK         0.0248 
     46 CB        -46.5023  -26.9686   14.5417 C.3       8 UNK        -0.2001 
     47 N         -47.9281  -24.9772   14.3042 N.am      8 UNK        -0.4140 
     48 C         -48.7113  -23.9390   14.6378 C.2       8 UNK         0.5028 
     49 O         -49.1130  -23.7264   15.7819 O.2       8 UNK        -0.5428 
     50 CA        -49.1690  -23.0055   13.5073 C.3       7 UNK         0.0264 
     51 CB        -48.0378  -22.0521   13.0909 C.3       7 UNK        -0.1988 
     52 N         -49.6629  -23.7276   12.3350 N.am      7 UNK        -0.4454 
     53 C         -50.7310  -24.5407   12.3158 C.2       7 UNK         0.5027 
     54 O         -51.4500  -24.7621   13.2901 O.2       7 UNK        -0.5083 
     55 CA        -51.0162  -25.2569   10.9810 C.3       6 UNK         0.0844 
     56 C56       -51.7034  -24.2735    9.9964 C.3       14 UNK        -0.0967 
     57 S57       -51.8195  -24.8437    8.2694 S.3       14 UNK        -0.2604 
     58 C58       -53.2242  -25.9942    8.3157 C.3       14 UNK         0.0134 
     59 N         -49.7995  -25.8840   10.4549 N.am      6 UNK        -0.4116 
     60 C         -49.0811  -26.8163   11.1018 C.2       5 UNK         0.5034 
     61 O         -49.3905  -27.2983   12.1914 O.2       5 UNK        -0.5045 
     62 CA        -47.7543  -27.2345   10.4572 C.3       5 UNK         0.0224 
     63 CB        -47.9831  -28.3241    9.4005 C.3       5 UNK        -0.1978 
     64 N         -47.0632  -26.0887    9.8633 N.am      5 UNK        -0.4737 
     65 C         -46.4521  -25.1322   10.5771 C.2       4 UNK         0.5027 
     66 O         -46.3709  -25.1452   11.8049 O.2       4 UNK        -0.5211 
     67 CA        -45.8688  -23.9404    9.7974 C.3       4 UNK         0.0297 
     68 CB        -44.4515  -24.2670    9.3011 C.3       4 UNK        -0.1993 
     69 N         -46.7012  -23.5283    8.6643 N.am      4 UNK        -0.4486 
     70 C         -47.9558  -23.0687    8.7698 C.2       3 UNK         0.4961 
     71 O         -48.5264  -22.8844    9.8448 O.2       3 UNK        -0.5105 
     72 CA        -48.7214  -22.8028    7.4605 C.3       3 UNK         0.0299 
     73 CB        -48.5159  -21.3456    7.0176 C.3       3 UNK        -0.1972 
     74 N         -48.4077  -23.6992    6.3370 N.am      3 UNK        -0.4305 
     75 C         -48.3528  -25.0402    6.3595 C.2       2 UNK         0.5006 
     76 O         -48.4750  -25.7170    7.3829 O.2       2 UNK        -0.5106 
     77 CA        -48.0856  -25.7420    5.0185 C.3       2 UNK         0.0296 
     78 CB        -46.9622  -25.0568    4.2079 C.3       2 UNK        -0.2002 
     79 N         -47.7313  -27.1353    5.2792 N.am      2 UNK        -0.4032 
     80 C         -47.7514  -28.1416    4.3963 C.2       1 UNK         0.5000 
     81 O         -48.1710  -28.0261    3.2427 O.2       1 UNK        -0.5238 
     82 H82       -44.1231  -27.7429    7.5703 H         1 UNK         0.0889 
     83 H83       -43.2504  -29.2038    7.0988 H         1 UNK         0.0889 
     84 H84       -44.7338  -29.3305    8.0432 H         1 UNK         0.0889 
     85 H85       -46.5861  -29.7877    6.8517 H         1 UNK         0.3028 
     86 H86       -46.5974  -29.8710    4.0051 H         1 UNK         0.0864 
     87 H87       -47.8410  -31.5475    5.1364 H         1 UNK         0.0720 
     88 H88       -49.0144  -30.5740    4.3095 H         1 UNK         0.0720 
     89 H89       -50.7807  -29.2009    5.3735 H         1 UNK         0.0814 
     90 H90       -51.3204  -30.8030    5.8286 H         1 UNK         0.0814 
     91 H91       -51.7862  -27.3689    6.4736 H         1 UNK         0.1469 
     92 H92       -53.6055  -27.7863   10.3136 H         1 UNK         0.1381 
     93 H93       -51.6403  -31.1465    8.4896 H         1 UNK         0.1206 
     94 H94       -53.5641  -31.3520   10.3780 H         1 UNK         0.0813 
     95 H95       -52.0301  -30.9157   11.0856 H         1 UNK         0.0813 
     96 H96       -55.6698  -28.6474   11.0968 H         1 UNK         0.0638 
     97 H97       -55.7217  -30.3584   10.7987 H         1 UNK         0.0638 
     98 H98       -57.5586  -29.5243   12.3007 H         1 UNK         0.0568 
     99 H99       -57.3908  -33.0613   12.8114 H         1 UNK         0.3450 
    100 H100      -57.7419  -31.8392   11.6180 H         1 UNK         0.3450 
    101 H101      -55.4226  -28.3516   13.7798 H         1 UNK         0.2987 
    102 H102      -57.5506  -26.9014   16.1794 H         1 UNK         0.0766 
    103 H103      -56.7754  -28.8661   17.4807 H         1 UNK         0.0798 
    104 H104      -55.7364  -27.4835   17.7921 H         1 UNK         0.0798 
    105 H105      -55.1898  -28.7781   16.7271 H         1 UNK         0.0798 
    106 H106      -54.7642  -26.5479   15.6294 H         1 UNK         0.3198 
    107 H107      -54.5505  -24.9627   13.0259 H         1 UNK         0.0843 
    108 H108      -55.8905  -22.6575   14.5330 H         1 UNK         0.0831 
    109 H109      -56.2098  -23.1454   12.8757 H         1 UNK         0.0831 
    110 H110      -54.6450  -22.4740   13.2979 H         1 UNK         0.0831 
    111 H111      -52.8747  -24.7416   14.4212 H         1 UNK         0.3133 
    112 H112      -51.8063  -23.3689   16.6523 H         1 UNK         0.0566 
    113 H113      -53.1194  -25.2586   18.6783 H         1 UNK         0.0814 
    114 H114      -53.0042  -23.5096   18.8109 H         1 UNK         0.0814 
    115 H115      -51.5475  -24.4857   18.8824 H         1 UNK         0.0814 
    116 H116      -50.6400  -25.1203   16.0047 H         1 UNK         0.3091 
    117 H117      -50.6759  -28.4195   16.3763 H         1 UNK         0.0702 
    118 H118      -50.8967  -29.1268   13.9834 H         1 UNK         0.0785 
    119 H119      -51.8802  -27.7035   13.6518 H         1 UNK         0.0785 
    120 H120      -52.4641  -28.9478   14.7522 H         1 UNK         0.0785 
    121 H121      -49.6447  -26.8182   14.1575 H         1 UNK         0.2998 
    122 H122      -46.9181  -25.4940   16.0410 H         1 UNK         0.0697 
    123 H123      -45.6345  -26.4415   14.1448 H         1 UNK         0.0825 
    124 H124      -46.9862  -27.4885   13.7145 H         1 UNK         0.0825 
    125 H125      -46.1318  -27.7272   15.2326 H         1 UNK         0.0825 
    126 H126      -47.5966  -25.0580   13.3463 H         1 UNK         0.3029 
    127 H127      -49.9956  -22.4044   13.8922 H         1 UNK         0.0897 
    128 H128      -47.6679  -21.4865   13.9471 H         1 UNK         0.0792 
    129 H129      -48.3815  -21.3307   12.3492 H         1 UNK         0.0792 
    130 H130      -47.1913  -22.5903   12.6632 H         1 UNK         0.0792 
    131 H131      -49.1600  -23.5700   11.4631 H         1 UNK         0.3086 
    132 H132      -51.7182  -26.0674   11.1873 H         1 UNK         0.0583 
    133 H133      -52.7044  -24.0238   10.3537 H         1 UNK         0.1020 
    134 H134      -51.1655  -23.3242    9.9624 H         1 UNK         0.1020 
    135 H135      -53.8884  -25.7488    9.1455 H         1 UNK         0.0694 
    136 H136      -53.8115  -25.8629    7.4059 H         1 UNK         0.0694 
    137 H137      -49.4830  -25.5683    9.5470 H         1 UNK         0.2989 
    138 H138      -47.1171  -27.6509   11.2404 H         1 UNK         0.1055 
    139 H139      -48.4232  -29.2145    9.8517 H         1 UNK         0.0806 
    140 H140      -47.0484  -28.6262    8.9307 H         1 UNK         0.0806 
    141 H141      -48.6673  -27.9946    8.6180 H         1 UNK         0.0806 
    142 H142      -47.2016  -25.9444    8.8683 H         1 UNK         0.3061 
    143 H143      -45.8046  -23.0958   10.4867 H         1 UNK         0.0734 
    144 H144      -44.4519  -25.0894    8.5845 H         1 UNK         0.0832 
    145 H145      -43.9885  -23.4035    8.8233 H         1 UNK         0.0832 
    146 H146      -43.8069  -24.5594   10.1313 H         1 UNK         0.0832 
    147 H147      -46.3140  -23.6482    7.7401 H         1 UNK         0.3156 
    148 H148      -49.7805  -22.9315    7.6808 H         1 UNK         0.0589 
    149 H149      -49.1570  -21.0914    6.1733 H         1 UNK         0.0808 
    150 H150      -47.4824  -21.1533    6.7265 H         1 UNK         0.0808 
    151 H151      -48.7610  -20.6534    7.8249 H         1 UNK         0.0808 
    152 H152      -48.2783  -23.2462    5.4440 H         1 UNK         0.3098 
    153 H153      -49.0153  -25.7182    4.4467 H         1 UNK         0.0720 
    154 H154      -47.2316  -24.0408    3.9187 H         1 UNK         0.0791 
    155 H155      -46.7522  -25.5951    3.2835 H         1 UNK         0.0791 
    156 H156      -46.0322  -25.0059    4.7759 H         1 UNK         0.0791 
    157 H157      -47.4686  -27.3273    6.2367 H         1 UNK         0.3028 
@<TRIPOS>BOND
     1    1    2 1    
     2    1   82 1    
     3    1   83 1    
     4    1   84 1    
     5    2    3 2    
     6    2    4 am   BACKBONE|DICT|INTERRES
     7    4    5 1    
     8    4   85 1    
     9    5    6 1    
    10    5   80 1    
    11    5   86 1    
    12    6    7 1    
    13    6   87 1    
    14    6   88 1    
    15    7    8 1    
    16    8    9 1    
    17    8   89 1    
    18    8   90 1    
    19    9   10 ar   
    20    9   14 ar   
    21   10   11 ar   
    22   10   91 1    
    23   11   12 ar   
    24   11   58 1    
    25   12   13 ar   
    26   12   92 1    
    27   13   14 ar   
    28   13   15 1    
    29   14   93 1    
    30   15   16 1    
    31   15   94 1    
    32   15   95 1    
    33   16   17 1    
    34   17   18 1    
    35   17   96 1    
    36   17   97 1    
    37   18   19 1    
    38   18   22 1    
    39   18   98 1    
    40   19   20 am   BACKBONE|DICT|INTERRES
    41   19   21 2    
    42   20   99 1    
    43   20  100 1    
    44   22   23 am   BACKBONE|DICT|INTERRES
    45   22  101 1    
    46   23   24 2    
    47   23   25 1    
    48   25   26 1    
    49   25   27 1    
    50   25  102 1    
    51   26  103 1    
    52   26  104 1    
    53   26  105 1    
    54   27   28 am   BACKBONE|DICT|INTERRES
    55   27  106 1    
    56   28   29 2    
    57   28   30 1    
    58   30   31 1    
    59   30   32 1    
    60   30  107 1    
    61   31  108 1    
    62   31  109 1    
    63   31  110 1    
    64   32   33 am   BACKBONE|DICT|INTERRES
    65   32  111 1    
    66   33   34 2    
    67   33   35 1    
    68   35   36 1    
    69   35   37 1    
    70   35  112 1    
    71   36  113 1    
    72   36  114 1    
    73   36  115 1    
    74   37   38 am   BACKBONE|DICT|INTERRES
    75   37  116 1    
    76   38   39 2    
    77   38   40 1    
    78   40   41 1    
    79   40   42 1    
    80   40  117 1    
    81   41  118 1    
    82   41  119 1    
    83   41  120 1    
    84   42   43 am   BACKBONE|DICT|INTERRES
    85   42  121 1    
    86   43   44 2    
    87   43   45 1    
    88   45   46 1    
    89   45   47 1    
    90   45  122 1    
    91   46  123 1    
    92   46  124 1    
    93   46  125 1    
    94   47   48 am   BACKBONE|DICT|INTERRES
    95   47  126 1    
    96   48   49 2    
    97   48   50 1    
    98   50   51 1    
    99   50   52 1    
   100   50  127 1    
   101   51  128 1    
   102   51  129 1    
   103   51  130 1    
   104   52   53 am   BACKBONE|DICT|INTERRES
   105   52  131 1    
   106   53   54 2    
   107   53   55 1    
   108   55   56 1    
   109   55   59 1    
   110   55  132 1    
   111   56   57 1    
   112   56  133 1    
   113   56  134 1    
   114   57   58 1    
   115   58  135 1    
   116   58  136 1    
   117   59   60 am   BACKBONE|DICT|INTERRES
   118   59  137 1    
   119   60   61 2    
   120   60   62 1    
   121   62   63 1    
   122   62   64 1    
   123   62  138 1    
   124   63  139 1    
   125   63  140 1    
   126   63  141 1    
   127   64   65 am   BACKBONE|DICT|INTERRES
   128   64  142 1    
   129   65   66 2    
   130   65   67 1    
   131   67   68 1    
   132   67   69 1    
   133   67  143 1    
   134   68  144 1    
   135   68  145 1    
   136   68  146 1    
   137   69   70 am   BACKBONE|DICT|INTERRES
   138   69  147 1    
   139   70   71 2    
   140   70   72 1    
   141   72   73 1    
   142   72   74 1    
   143   72  148 1    
   144   73  149 1    
   145   73  150 1    
   146   73  151 1    
   147   74   75 am   BACKBONE|DICT|INTERRES
   148   74  152 1    
   149   75   76 2    
   150   75   77 1    
   151   77   78 1    
   152   77   79 1    
   153   77  153 1    
   154   78  154 1    
   155   78  155 1    
   156   78  156 1    
   157   79   80 am   BACKBONE|DICT|INTERRES
   158   79  157 1    
   159   80   81 2    
@<TRIPOS>SUBSTRUCTURE
     1 UNK         1 GROUP             0       ****    0 ROOT    
