@<TRIPOS>MOLECULE
3R207
157   159    1
SMALL
USER_CHARGES


@<TRIPOS>ATOM
      1 CA        -48.9398  -21.3872    4.7763 C.3       0 UNK        -0.1975 
      2 C         -48.8069  -22.6606    5.5972 C.2       0 UNK         0.4852 
      3 O         -47.6996  -23.0056    6.0116 O.2       0 UNK        -0.5216 
      4 N         -49.9250  -23.3593    5.8376 N.am      1 UNK        -0.4461 
      5 CA        -50.0013  -24.6242    6.5774 C.3       1 UNK         0.0864 
      6 C6        -51.4737  -25.0778    6.7290 C.3       14 UNK        -0.0898 
      7 S7        -51.7007  -26.3422    8.0201 S.3       14 UNK        -0.2598 
      8 C8        -52.0523  -27.8174    7.0112 C.3       14 UNK         0.0286 
      9 C9        -52.3113  -29.0110    7.9134 C.ar      14 UNK        -0.0844 
     10 C10       -51.2356  -29.6942    8.4827 C.ar      14 UNK        -0.0881 
     11 C11       -51.4508  -30.6942    9.4360 C.ar      14 UNK        -0.0643 
     12 C12       -52.7608  -31.0813    9.7334 C.ar      14 UNK        -0.0930 
     13 C13       -53.8480  -30.4374    9.1337 C.ar      14 UNK        -0.0827 
     14 C14       -53.6171  -29.3933    8.2325 C.ar      14 UNK        -0.1249 
     15 C15       -55.2706  -30.8591    9.4706 C.3       14 UNK         0.0141 
     16 S16       -55.6569  -30.5877   11.2284 S.3       14 UNK        -0.2313 
     17 C17       -57.4534  -30.9064   11.2400 C.3       14 UNK        -0.0915 
     18 CA        -58.2641  -29.6373   11.6354 C.3       13 UNK         0.0968 
     19 C         -59.7969  -29.7891   11.3849 C.2       13 UNK         0.5732 
     20 N         -60.6591  -29.1386   12.1576 N.am      13 UNK        -0.7310 
     21 O         -60.2170  -30.4755   10.4558 O.2       13 UNK        -0.5035 
     22 N         -57.9010  -29.1301   12.9724 N.am      13 UNK        -0.4233 
     23 C         -58.1087  -29.7505   14.1404 C.2       13 UNK         0.4989 
     24 O         -58.6609  -30.8466   14.2537 O.2       13 UNK        -0.4996 
     25 CA        -57.5900  -29.0194   15.3917 C.3       12 UNK         0.0216 
     26 CB        -58.1227  -29.6344   16.7001 C.3       12 UNK        -0.1964 
     27 N         -56.1264  -29.0053   15.4366 N.am      12 UNK        -0.4276 
     28 C         -55.3401  -28.1785   14.7368 C.2       12 UNK         0.5020 
     29 O         -55.7650  -27.3492   13.9266 O.2       12 UNK        -0.5489 
     30 CA        -53.8248  -28.3062   14.9816 C.3       11 UNK         0.0294 
     31 CB        -53.1497  -29.0530   13.8199 C.3       11 UNK        -0.2019 
     32 N         -53.1790  -27.0025   15.1577 N.am      11 UNK        -0.4493 
     33 C         -53.4832  -26.1138   16.1150 C.2       11 UNK         0.4932 
     34 O         -54.3044  -26.3199   17.0115 O.2       11 UNK        -0.5029 
     35 CA        -52.7170  -24.7808   16.0589 C.3       10 UNK         0.0280 
     36 CB        -53.1362  -23.7833   17.1600 C.3       10 UNK        -0.1976 
     37 N         -51.2668  -24.9852   16.0568 N.am      10 UNK        -0.4242 
     38 C         -50.5054  -25.5453   17.0099 C.2       10 UNK         0.5072 
     39 O         -50.9346  -25.9593   18.0875 O.2       10 UNK        -0.5224 
     40 CA        -48.9972  -25.6736   16.7139 C.3       9 UNK         0.0343 
     41 CB        -48.6451  -27.1296   16.3691 C.3       9 UNK        -0.2003 
     42 N         -48.5364  -24.8050   15.6270 N.am      9 UNK        -0.4272 
     43 C         -48.4623  -23.4675   15.6849 C.2       9 UNK         0.4988 
     44 O         -48.6819  -22.8094   16.7019 O.2       9 UNK        -0.5108 
     45 CA        -48.1298  -22.7425   14.3714 C.3       8 UNK         0.0248 
     46 CB        -46.6096  -22.6591   14.1593 C.3       8 UNK        -0.2001 
     47 N         -48.7664  -23.3848   13.2162 N.am      8 UNK        -0.4140 
     48 C         -50.0733  -23.2916   12.9268 C.2       8 UNK         0.5028 
     49 O         -50.8685  -22.6103   13.5732 O.2       8 UNK        -0.5428 
     50 CA        -50.5931  -24.1169   11.7375 C.3       7 UNK         0.0264 
     51 CB        -50.4377  -23.3336   10.4247 C.3       7 UNK        -0.1988 
     52 N         -49.9349  -25.4198   11.6190 N.am      7 UNK        -0.4454 
     53 C         -50.1385  -26.4462   12.4617 C.2       7 UNK         0.5027 
     54 O         -50.9435  -26.4139   13.3935 O.2       7 UNK        -0.5083 
     55 CA        -49.2797  -27.7130   12.2452 C.3       6 UNK         0.0844 
     56 C56       -50.0294  -28.6958   11.3155 C.3       14 UNK        -0.0967 
     57 S57       -49.0249  -30.1267   10.7673 S.3       14 UNK        -0.2604 
     58 C58       -50.2835  -31.3262   10.1902 C.3       14 UNK         0.0134 
     59 N         -47.9360  -27.4057   11.7472 N.am      6 UNK        -0.4116 
     60 C         -47.0366  -26.6026   12.3267 C.2       5 UNK         0.5034 
     61 O         -47.2305  -26.0065   13.3858 O.2       5 UNK        -0.5045 
     62 CA        -45.7186  -26.3742   11.5724 C.3       5 UNK         0.0224 
     63 CB        -45.3460  -27.5234   10.6094 C.3       5 UNK        -0.1978 
     64 N         -45.7153  -25.0903   10.8615 N.am      5 UNK        -0.4737 
     65 C         -46.5807  -24.6637    9.9293 C.2       4 UNK         0.5027 
     66 O         -47.5799  -25.2900    9.5609 O.2       4 UNK        -0.5211 
     67 CA        -46.2733  -23.3124    9.2623 C.3       4 UNK         0.0297 
     68 CB        -45.3510  -22.3749   10.0736 C.3       4 UNK        -0.1993 
     69 N         -45.7685  -23.5500    7.9108 N.am      4 UNK        -0.4486 
     70 C         -44.6261  -24.1538    7.5507 C.2       3 UNK         0.4961 
     71 O         -43.6891  -24.3977    8.3129 O.2       3 UNK        -0.5105 
     72 CA        -44.5879  -24.6306    6.0874 C.3       3 UNK         0.0299 
     73 CB        -43.2290  -25.2297    5.6655 C.3       3 UNK        -0.1972 
     74 N         -45.6963  -25.5645    5.8425 N.am      3 UNK        -0.4305 
     75 C         -45.9063  -26.7502    6.4406 C.2       2 UNK         0.5006 
     76 O         -45.0842  -27.3260    7.1538 O.2       2 UNK        -0.5106 
     77 CA        -47.3051  -27.3547    6.2460 C.3       2 UNK         0.0296 
     78 CB        -47.5076  -28.6820    7.0018 C.3       2 UNK        -0.2002 
     79 N         -48.2959  -26.3833    6.7098 N.am      2 UNK        -0.4032 
     80 C         -49.1362  -25.7149    5.9113 C.2       1 UNK         0.5000 
     81 O         -49.2386  -25.9115    4.6973 O.2       1 UNK        -0.5238 
     82 H82       -48.5853  -20.5327    5.3519 H         1 UNK         0.0889 
     83 H83       -49.9719  -21.1954    4.4837 H         1 UNK         0.0889 
     84 H84       -48.3380  -21.4619    3.8710 H         1 UNK         0.0889 
     85 H85       -50.7964  -23.0335    5.4449 H         1 UNK         0.3028 
     86 H86       -49.5956  -24.4227    7.5715 H         1 UNK         0.0864 
     87 H87       -51.8818  -25.4250    5.7774 H         1 UNK         0.0720 
     88 H88       -52.0918  -24.2277    7.0224 H         1 UNK         0.0720 
     89 H89       -51.2092  -28.0238    6.3499 H         1 UNK         0.0814 
     90 H90       -52.9155  -27.6284    6.3711 H         1 UNK         0.0814 
     91 H91       -50.2268  -29.3857    8.2497 H         1 UNK         0.1469 
     92 H92       -52.9411  -31.8646   10.4571 H         1 UNK         0.1381 
     93 H93       -54.4522  -28.8652    7.7926 H         1 UNK         0.1206 
     94 H94       -55.4018  -31.9150    9.2302 H         1 UNK         0.0813 
     95 H95       -55.9862  -30.3081    8.8581 H         1 UNK         0.0813 
     96 H96       -57.7513  -31.2646   10.2533 H         1 UNK         0.0638 
     97 H97       -57.6567  -31.7285   11.9273 H         1 UNK         0.0638 
     98 H98       -57.9682  -28.8471   10.9446 H         1 UNK         0.0568 
     99 H99       -61.6469  -29.2326   11.9817 H         1 UNK         0.3450 
    100 H100      -60.3325  -28.5585   12.9131 H         1 UNK         0.3450 
    101 H101      -57.3748  -28.2628   12.9928 H         1 UNK         0.2987 
    102 H102      -57.9509  -27.9895   15.3426 H         1 UNK         0.0766 
    103 H103      -57.8016  -29.0585   17.5683 H         1 UNK         0.0798 
    104 H104      -57.7830  -30.6623   16.8349 H         1 UNK         0.0798 
    105 H105      -59.2136  -29.6480   16.7089 H         1 UNK         0.0798 
    106 H106      -55.6936  -29.6802   16.0510 H         1 UNK         0.3198 
    107 H107      -53.6609  -28.8750   15.8992 H         1 UNK         0.0843 
    108 H108      -52.0863  -29.2003   14.0087 H         1 UNK         0.0831 
    109 H109      -53.2542  -28.5105   12.8789 H         1 UNK         0.0831 
    110 H110      -53.5937  -30.0391   13.6762 H         1 UNK         0.0831 
    111 H111      -52.4663  -26.7520   14.4758 H         1 UNK         0.3133 
    112 H112      -52.9600  -24.3261   15.0972 H         1 UNK         0.0566 
    113 H113      -52.5951  -22.8416   17.0666 H         1 UNK         0.0814 
    114 H114      -54.2003  -23.5546   17.0920 H         1 UNK         0.0814 
    115 H115      -52.9532  -24.1777   18.1600 H         1 UNK         0.0814 
    116 H116      -50.8027  -24.7324   15.1953 H         1 UNK         0.3091 
    117 H117      -48.4580  -25.3936   17.6212 H         1 UNK         0.0702 
    118 H118      -47.5790  -27.2471   16.1734 H         1 UNK         0.0785 
    119 H119      -49.1888  -27.4748   15.4898 H         1 UNK         0.0785 
    120 H120      -48.9004  -27.7982   17.1924 H         1 UNK         0.0785 
    121 H121      -48.2434  -25.2655   14.7684 H         1 UNK         0.2998 
    122 H122      -48.5125  -21.7227   14.4526 H         1 UNK         0.0697 
    123 H123      -46.3664  -22.0321   13.3029 H         1 UNK         0.0825 
    124 H124      -46.1198  -22.2158   15.0275 H         1 UNK         0.0825 
    125 H125      -46.1613  -23.6400   14.0002 H         1 UNK         0.0825 
    126 H126      -48.1951  -24.0239   12.6818 H         1 UNK         0.3029 
    127 H127      -51.6594  -24.2906   11.9008 H         1 UNK         0.0897 
    128 H128      -50.9029  -23.8624    9.5940 H         1 UNK         0.0792 
    129 H129      -50.9205  -22.3577   10.4932 H         1 UNK         0.0792 
    130 H130      -49.3916  -23.1625   10.1736 H         1 UNK         0.0792 
    131 H131      -49.2508  -25.5256   10.8768 H         1 UNK         0.3086 
    132 H132      -49.1530  -28.1954   13.2156 H         1 UNK         0.0583 
    133 H133      -50.9302  -29.0671   11.8070 H         1 UNK         0.1020 
    134 H134      -50.3680  -28.1633   10.4255 H         1 UNK         0.1020 
    135 H135      -49.8010  -32.0620    9.5458 H         1 UNK         0.0694 
    136 H136      -50.6491  -31.8712   11.0619 H         1 UNK         0.0694 
    137 H137      -47.6892  -27.8382   10.8693 H         1 UNK         0.2989 
    138 H138      -44.9398  -26.3169   12.3348 H         1 UNK         0.1055 
    139 H139      -45.3418  -28.4863   11.1222 H         1 UNK         0.0806 
    140 H140      -44.3477  -27.3754   10.1969 H         1 UNK         0.0806 
    141 H141      -46.0310  -27.5981    9.7652 H         1 UNK         0.0806 
    142 H142      -44.9316  -24.4865   11.0674 H         1 UNK         0.3061 
    143 H143      -47.2299  -22.8027    9.1411 H         1 UNK         0.0734 
    144 H144      -44.3543  -22.7860   10.2327 H         1 UNK         0.0832 
    145 H145      -45.2300  -21.4179    9.5661 H         1 UNK         0.0832 
    146 H146      -45.7797  -22.1624   11.0522 H         1 UNK         0.0832 
    147 H147      -46.4614  -23.3945    7.1755 H         1 UNK         0.3156 
    148 H148      -44.7716  -23.7547    5.4628 H         1 UNK         0.0589 
    149 H149      -43.2449  -25.5544    4.6253 H         1 UNK         0.0808 
    150 H150      -42.4346  -24.4890    5.7633 H         1 UNK         0.0808 
    151 H151      -42.9470  -26.0854    6.2796 H         1 UNK         0.0808 
    152 H152      -46.4597  -25.1816    5.3001 H         1 UNK         0.3098 
    153 H153      -47.4166  -27.5587    5.1791 H         1 UNK         0.0720 
    154 H154      -47.4751  -28.5455    8.0829 H         1 UNK         0.0791 
    155 H155      -46.7373  -29.4076    6.7377 H         1 UNK         0.0791 
    156 H156      -48.4675  -29.1301    6.7481 H         1 UNK         0.0791 
    157 H157      -48.2284  -26.1165    7.6876 H         1 UNK         0.3028 
@<TRIPOS>BOND
     1    1    2 1    
     2    1   82 1    
     3    1   83 1    
     4    1   84 1    
     5    2    3 2    
     6    2    4 am   BACKBONE|DICT|INTERRES
     7    4    5 1    
     8    4   85 1    
     9    5    6 1    
    10    5   80 1    
    11    5   86 1    
    12    6    7 1    
    13    6   87 1    
    14    6   88 1    
    15    7    8 1    
    16    8    9 1    
    17    8   89 1    
    18    8   90 1    
    19    9   10 ar   
    20    9   14 ar   
    21   10   11 ar   
    22   10   91 1    
    23   11   12 ar   
    24   11   58 1    
    25   12   13 ar   
    26   12   92 1    
    27   13   14 ar   
    28   13   15 1    
    29   14   93 1    
    30   15   16 1    
    31   15   94 1    
    32   15   95 1    
    33   16   17 1    
    34   17   18 1    
    35   17   96 1    
    36   17   97 1    
    37   18   19 1    
    38   18   22 1    
    39   18   98 1    
    40   19   20 am   BACKBONE|DICT|INTERRES
    41   19   21 2    
    42   20   99 1    
    43   20  100 1    
    44   22   23 am   BACKBONE|DICT|INTERRES
    45   22  101 1    
    46   23   24 2    
    47   23   25 1    
    48   25   26 1    
    49   25   27 1    
    50   25  102 1    
    51   26  103 1    
    52   26  104 1    
    53   26  105 1    
    54   27   28 am   BACKBONE|DICT|INTERRES
    55   27  106 1    
    56   28   29 2    
    57   28   30 1    
    58   30   31 1    
    59   30   32 1    
    60   30  107 1    
    61   31  108 1    
    62   31  109 1    
    63   31  110 1    
    64   32   33 am   BACKBONE|DICT|INTERRES
    65   32  111 1    
    66   33   34 2    
    67   33   35 1    
    68   35   36 1    
    69   35   37 1    
    70   35  112 1    
    71   36  113 1    
    72   36  114 1    
    73   36  115 1    
    74   37   38 am   BACKBONE|DICT|INTERRES
    75   37  116 1    
    76   38   39 2    
    77   38   40 1    
    78   40   41 1    
    79   40   42 1    
    80   40  117 1    
    81   41  118 1    
    82   41  119 1    
    83   41  120 1    
    84   42   43 am   BACKBONE|DICT|INTERRES
    85   42  121 1    
    86   43   44 2    
    87   43   45 1    
    88   45   46 1    
    89   45   47 1    
    90   45  122 1    
    91   46  123 1    
    92   46  124 1    
    93   46  125 1    
    94   47   48 am   BACKBONE|DICT|INTERRES
    95   47  126 1    
    96   48   49 2    
    97   48   50 1    
    98   50   51 1    
    99   50   52 1    
   100   50  127 1    
   101   51  128 1    
   102   51  129 1    
   103   51  130 1    
   104   52   53 am   BACKBONE|DICT|INTERRES
   105   52  131 1    
   106   53   54 2    
   107   53   55 1    
   108   55   56 1    
   109   55   59 1    
   110   55  132 1    
   111   56   57 1    
   112   56  133 1    
   113   56  134 1    
   114   57   58 1    
   115   58  135 1    
   116   58  136 1    
   117   59   60 am   BACKBONE|DICT|INTERRES
   118   59  137 1    
   119   60   61 2    
   120   60   62 1    
   121   62   63 1    
   122   62   64 1    
   123   62  138 1    
   124   63  139 1    
   125   63  140 1    
   126   63  141 1    
   127   64   65 am   BACKBONE|DICT|INTERRES
   128   64  142 1    
   129   65   66 2    
   130   65   67 1    
   131   67   68 1    
   132   67   69 1    
   133   67  143 1    
   134   68  144 1    
   135   68  145 1    
   136   68  146 1    
   137   69   70 am   BACKBONE|DICT|INTERRES
   138   69  147 1    
   139   70   71 2    
   140   70   72 1    
   141   72   73 1    
   142   72   74 1    
   143   72  148 1    
   144   73  149 1    
   145   73  150 1    
   146   73  151 1    
   147   74   75 am   BACKBONE|DICT|INTERRES
   148   74  152 1    
   149   75   76 2    
   150   75   77 1    
   151   77   78 1    
   152   77   79 1    
   153   77  153 1    
   154   78  154 1    
   155   78  155 1    
   156   78  156 1    
   157   79   80 am   BACKBONE|DICT|INTERRES
   158   79  157 1    
   159   80   81 2    
@<TRIPOS>SUBSTRUCTURE
     1 UNK         1 GROUP             0       ****    0 ROOT    
