@<TRIPOS>MOLECULE
3R207
157   159    1
SMALL
USER_CHARGES


@<TRIPOS>ATOM
      1 CA        -45.5346  -30.0401    9.4474 C.3       0 UNK        -0.1975 
      2 C         -46.0512  -30.3778    8.0567 C.2       0 UNK         0.4852 
      3 O         -45.2606  -30.7200    7.1769 O.2       0 UNK        -0.5216 
      4 N         -47.3723  -30.2869    7.8537 N.am      1 UNK        -0.4461 
      5 CA        -48.0529  -30.5495    6.5783 C.3       1 UNK         0.0864 
      6 C6        -49.5789  -30.7370    6.7730 C.3       14 UNK        -0.0898 
      7 S7        -50.3950  -29.3544    7.6491 S.3       14 UNK        -0.2598 
      8 C8        -51.3814  -28.6074    6.3141 C.3       14 UNK         0.0286 
      9 C9        -52.3229  -27.5529    6.8736 C.ar      14 UNK        -0.0844 
     10 C10       -52.0296  -26.1904    6.7487 C.ar      14 UNK        -0.0881 
     11 C11       -52.8722  -25.2296    7.3212 C.ar      14 UNK        -0.0643 
     12 C12       -54.0335  -25.6429    7.9810 C.ar      14 UNK        -0.0930 
     13 C13       -54.3382  -27.0002    8.1065 C.ar      14 UNK        -0.0827 
     14 C14       -53.4827  -27.9504    7.5452 C.ar      14 UNK        -0.1249 
     15 C15       -55.5817  -27.4322    8.8677 C.3       14 UNK         0.0141 
     16 S16       -55.3621  -27.2278   10.6627 S.3       14 UNK        -0.2313 
     17 C17       -54.2766  -28.6371   11.0888 C.3       14 UNK        -0.0915 
     18 CA        -54.9324  -29.6217   12.1020 C.3       13 UNK         0.0968 
     19 C         -54.0223  -30.8458   12.4256 C.2       13 UNK         0.5732 
     20 N         -54.0644  -31.3983   13.6320 N.am      13 UNK        -0.7310 
     21 O         -53.2958  -31.3314   11.5618 O.2       13 UNK        -0.5035 
     22 N         -55.5128  -28.9495   13.2809 N.am      13 UNK        -0.4233 
     23 C         -54.8503  -28.2346   14.1982 C.2       13 UNK         0.4989 
     24 O         -53.6252  -28.0878   14.2263 O.2       13 UNK        -0.4996 
     25 CA        -55.7191  -27.5809   15.2779 C.3       12 UNK         0.0216 
     26 CB        -56.1512  -28.6039   16.3434 C.3       12 UNK        -0.1964 
     27 N         -54.9676  -26.4950   15.8995 N.am      12 UNK        -0.4276 
     28 C         -55.4956  -25.3794   16.4153 C.2       12 UNK         0.5020 
     29 O         -56.7078  -25.1661   16.4877 O.2       12 UNK        -0.5489 
     30 CA        -54.4916  -24.3217   16.9128 C.3       11 UNK         0.0294 
     31 CB        -55.1550  -23.1522   17.6736 C.3       11 UNK        -0.2019 
     32 N         -53.3913  -24.9173   17.6816 N.am      11 UNK        -0.4493 
     33 C         -53.4764  -25.5200   18.8782 C.2       11 UNK         0.4932 
     34 O         -54.5158  -25.6193   19.5329 O.2       11 UNK        -0.5029 
     35 CA        -52.1638  -26.1185   19.4205 C.3       10 UNK         0.0280 
     36 CB        -52.3144  -26.7386   20.8265 C.3       10 UNK        -0.1976 
     37 N         -51.5683  -27.0824   18.4888 N.am      10 UNK        -0.4242 
     38 C         -52.1137  -28.2108   18.0105 C.2       10 UNK         0.5072 
     39 O         -53.2225  -28.6319   18.3400 O.2       10 UNK        -0.5224 
     40 CA        -51.2686  -28.9935   16.9842 C.3       9 UNK         0.0343 
     41 CB        -52.0025  -30.2225   16.4162 C.3       9 UNK        -0.2003 
     42 N         -50.8152  -28.1433   15.8766 N.am      9 UNK        -0.4272 
     43 C         -49.7663  -27.3099   15.9419 C.2       9 UNK         0.4988 
     44 O         -49.0966  -27.1535   16.9644 O.2       9 UNK        -0.5108 
     45 CA        -49.3925  -26.4998   14.6913 C.3       8 UNK         0.0248 
     46 CB        -48.2059  -27.1529   13.9648 C.3       8 UNK        -0.2001 
     47 N         -50.4803  -26.2984   13.7359 N.am      8 UNK        -0.4140 
     48 C         -51.5753  -25.5552   13.9289 C.2       8 UNK         0.5028 
     49 O         -51.8665  -25.0443   15.0131 O.2       8 UNK        -0.5428 
     50 CA        -52.4763  -25.3373   12.6919 C.3       7 UNK         0.0264 
     51 CB        -53.6599  -24.3937   12.9679 C.3       7 UNK        -0.1988 
     52 N         -51.7456  -24.8357   11.5223 N.am      7 UNK        -0.4454 
     53 C         -50.8989  -25.5339   10.7526 C.2       7 UNK         0.5027 
     54 O         -50.6194  -26.7171   10.9624 O.2       7 UNK        -0.5083 
     55 CA        -50.2303  -24.8079    9.5611 C.3       6 UNK         0.0844 
     56 C56       -50.6138  -23.3160    9.3522 C.3       14 UNK        -0.0967 
     57 S57       -52.3587  -22.9969    8.9076 S.3       14 UNK        -0.2604 
     58 C58       -52.5309  -23.7456    7.2496 C.3       14 UNK         0.0134 
     59 N         -48.7806  -25.0035    9.5569 N.am      6 UNK        -0.4116 
     60 C         -47.9179  -24.6904   10.5341 C.2       5 UNK         0.5034 
     61 O         -48.2321  -24.1463   11.5928 O.2       5 UNK        -0.5045 
     62 CA        -46.4444  -25.0225   10.2633 C.3       5 UNK         0.0224 
     63 CB        -46.2148  -26.5438   10.2166 C.3       5 UNK        -0.1978 
     64 N         -46.0234  -24.4265    8.9958 N.am      5 UNK        -0.4737 
     65 C         -45.3761  -23.2586    8.8793 C.2       4 UNK         0.5027 
     66 O         -44.9671  -22.6018    9.8369 O.2       4 UNK        -0.5211 
     67 CA        -45.1491  -22.7233    7.4518 C.3       4 UNK         0.0297 
     68 CB        -43.7731  -23.1633    6.9264 C.3       4 UNK        -0.1993 
     69 N         -46.1857  -23.1522    6.5093 N.am      4 UNK        -0.4486 
     70 C         -47.4684  -22.7649    6.5577 C.2       3 UNK         0.4961 
     71 O         -47.8886  -21.8953    7.3202 O.2       3 UNK        -0.5105 
     72 CA        -48.4616  -23.4838    5.6238 C.3       3 UNK         0.0299 
     73 CB        -48.8631  -22.5718    4.4539 C.3       3 UNK        -0.1972 
     74 N         -47.9890  -24.7706    5.0965 N.am      3 UNK        -0.4305 
     75 C         -47.7262  -25.8555    5.8363 C.2       2 UNK         0.5006 
     76 O         -47.8121  -25.8875    7.0679 O.2       2 UNK        -0.5106 
     77 CA        -47.2333  -27.0910    5.0812 C.3       2 UNK         0.0296 
     78 CB        -45.7294  -26.9826    4.7727 C.3       2 UNK        -0.2002 
     79 N         -47.4776  -28.2552    5.9210 N.am      2 UNK        -0.4032 
     80 C         -47.7509  -29.4924    5.4942 C.2       1 UNK         0.5000 
     81 O         -47.7795  -29.8172    4.3054 O.2       1 UNK        -0.5238 
     82 H82       -46.3328  -29.7058   10.1100 H         1 UNK         0.0889 
     83 H83       -44.7882  -29.2486    9.3879 H         1 UNK         0.0889 
     84 H84       -45.0664  -30.9159    9.8956 H         1 UNK         0.0889 
     85 H85       -47.9801  -30.0097    8.6124 H         1 UNK         0.3028 
     86 H86       -47.6589  -31.4937    6.1954 H         1 UNK         0.0864 
     87 H87       -49.7540  -31.6389    7.3614 H         1 UNK         0.0720 
     88 H88       -50.0718  -30.9205    5.8162 H         1 UNK         0.0720 
     89 H89       -51.9634  -29.3800    5.8091 H         1 UNK         0.0814 
     90 H90       -50.7151  -28.1768    5.5650 H         1 UNK         0.0814 
     91 H91       -51.1273  -25.8805    6.2392 H         1 UNK         0.1469 
     92 H92       -54.6866  -24.9056    8.4280 H         1 UNK         0.1381 
     93 H93       -53.7041  -29.0038    7.6503 H         1 UNK         0.1206 
     94 H94       -56.4292  -26.8256    8.5453 H         1 UNK         0.0813 
     95 H95       -55.8439  -28.4672    8.6428 H         1 UNK         0.0813 
     96 H96       -54.0117  -29.1669   10.1731 H         1 UNK         0.0638 
     97 H97       -53.3360  -28.2531   11.4818 H         1 UNK         0.0638 
     98 H98       -55.7883  -30.0626   11.5903 H         1 UNK         0.0568 
     99 H99       -53.4848  -32.1988   13.8262 H         1 UNK         0.3450 
    100 H100      -54.6692  -31.0250   14.3443 H         1 UNK         0.3450 
    101 H101      -56.5161  -29.0255   13.3621 H         1 UNK         0.2987 
    102 H102      -56.6051  -27.1668   14.7913 H         1 UNK         0.0766 
    103 H103      -56.7300  -28.1307   17.1369 H         1 UNK         0.0798 
    104 H104      -55.2925  -29.0918   16.8043 H         1 UNK         0.0798 
    105 H105      -56.7763  -29.3854   15.9103 H         1 UNK         0.0798 
    106 H106      -53.9613  -26.5818   15.8220 H         1 UNK         0.3198 
    107 H107      -54.0373  -23.8948   16.0182 H         1 UNK         0.0843 
    108 H108      -55.7089  -23.4937   18.5483 H         1 UNK         0.0831 
    109 H109      -55.8624  -22.6252   17.0321 H         1 UNK         0.0831 
    110 H110      -54.4156  -22.4237   18.0060 H         1 UNK         0.0831 
    111 H111      -52.5005  -24.9275   17.1971 H         1 UNK         0.3133 
    112 H112      -51.4571  -25.2913   19.5021 H         1 UNK         0.0566 
    113 H113      -53.0257  -27.5652   20.8329 H         1 UNK         0.0814 
    114 H114      -51.3612  -27.1140   21.1986 H         1 UNK         0.0814 
    115 H115      -52.6724  -25.9977   21.5423 H         1 UNK         0.0814 
    116 H116      -50.6413  -26.8526   18.1408 H         1 UNK         0.3091 
    117 H117      -50.3914  -29.3650   17.5186 H         1 UNK         0.0702 
    118 H118      -52.9328  -29.9455   15.9229 H         1 UNK         0.0785 
    119 H119      -52.2555  -30.9261   17.2102 H         1 UNK         0.0785 
    120 H120      -51.3860  -30.7576   15.6939 H         1 UNK         0.0785 
    121 H121      -51.3706  -28.1676   15.0304 H         1 UNK         0.2998 
    122 H122      -49.0766  -25.5125   15.0344 H         1 UNK         0.0697 
    123 H123      -48.4735  -28.1231   13.5443 H         1 UNK         0.0825 
    124 H124      -47.3666  -27.3099   14.6440 H         1 UNK         0.0825 
    125 H125      -47.8478  -26.5208   13.1530 H         1 UNK         0.0825 
    126 H126      -50.3447  -26.6693   12.7980 H         1 UNK         0.3029 
    127 H127      -52.8909  -26.3090   12.4309 H         1 UNK         0.0897 
    128 H128      -53.3261  -23.4096   13.2991 H         1 UNK         0.0792 
    129 H129      -54.3084  -24.8020   13.7407 H         1 UNK         0.0792 
    130 H130      -54.2761  -24.2608   12.0781 H         1 UNK         0.0792 
    131 H131      -51.9212  -23.8741   11.2661 H         1 UNK         0.3086 
    132 H132      -50.5500  -25.3584    8.6839 H         1 UNK         0.0583 
    133 H133      -50.3624  -22.7295   10.2378 H         1 UNK         0.1020 
    134 H134      -50.0036  -22.8941    8.5536 H         1 UNK         0.1020 
    135 H135      -53.3350  -23.2325    6.7205 H         1 UNK         0.0694 
    136 H136      -51.6253  -23.5710    6.6691 H         1 UNK         0.0694 
    137 H137      -48.4140  -25.4474    8.7181 H         1 UNK         0.2989 
    138 H138      -45.8528  -24.6175   11.0878 H         1 UNK         0.1055 
    139 H139      -46.5354  -27.0176   11.1448 H         1 UNK         0.0806 
    140 H140      -45.1577  -26.7748   10.0855 H         1 UNK         0.0806 
    141 H141      -46.7623  -27.0189    9.4020 H         1 UNK         0.0806 
    142 H142      -46.3676  -24.8727    8.1537 H         1 UNK         0.3061 
    143 H143      -45.1658  -21.6323    7.5010 H         1 UNK         0.0734 
    144 H144      -43.5652  -22.7339    5.9462 H         1 UNK         0.0832 
    145 H145      -42.9777  -22.8345    7.5970 H         1 UNK         0.0832 
    146 H146      -43.6991  -24.2484    6.8424 H         1 UNK         0.0832 
    147 H147      -45.9247  -23.8497    5.8286 H         1 UNK         0.3156 
    148 H148      -49.3541  -23.6882    6.2164 H         1 UNK         0.0589 
    149 H149      -48.0148  -22.3501    3.8050 H         1 UNK         0.0808 
    150 H150      -49.6446  -23.0265    3.8448 H         1 UNK         0.0808 
    151 H151      -49.2530  -21.6195    4.8166 H         1 UNK         0.0808 
    152 H152      -47.8722  -24.8281    4.0943 H         1 UNK         0.3098 
    153 H153      -47.8005  -27.1808    4.1522 H         1 UNK         0.0720 
    154 H154      -45.3703  -27.8679    4.2473 H         1 UNK         0.0791 
    155 H155      -45.1379  -26.8750    5.6831 H         1 UNK         0.0791 
    156 H156      -45.5155  -26.1228    4.1368 H         1 UNK         0.0791 
    157 H157      -47.5424  -28.0505    6.9099 H         1 UNK         0.3028 
@<TRIPOS>BOND
     1    1    2 1    
     2    1   82 1    
     3    1   83 1    
     4    1   84 1    
     5    2    3 2    
     6    2    4 am   BACKBONE|DICT|INTERRES
     7    4    5 1    
     8    4   85 1    
     9    5    6 1    
    10    5   80 1    
    11    5   86 1    
    12    6    7 1    
    13    6   87 1    
    14    6   88 1    
    15    7    8 1    
    16    8    9 1    
    17    8   89 1    
    18    8   90 1    
    19    9   10 ar   
    20    9   14 ar   
    21   10   11 ar   
    22   10   91 1    
    23   11   12 ar   
    24   11   58 1    
    25   12   13 ar   
    26   12   92 1    
    27   13   14 ar   
    28   13   15 1    
    29   14   93 1    
    30   15   16 1    
    31   15   94 1    
    32   15   95 1    
    33   16   17 1    
    34   17   18 1    
    35   17   96 1    
    36   17   97 1    
    37   18   19 1    
    38   18   22 1    
    39   18   98 1    
    40   19   20 am   BACKBONE|DICT|INTERRES
    41   19   21 2    
    42   20   99 1    
    43   20  100 1    
    44   22   23 am   BACKBONE|DICT|INTERRES
    45   22  101 1    
    46   23   24 2    
    47   23   25 1    
    48   25   26 1    
    49   25   27 1    
    50   25  102 1    
    51   26  103 1    
    52   26  104 1    
    53   26  105 1    
    54   27   28 am   BACKBONE|DICT|INTERRES
    55   27  106 1    
    56   28   29 2    
    57   28   30 1    
    58   30   31 1    
    59   30   32 1    
    60   30  107 1    
    61   31  108 1    
    62   31  109 1    
    63   31  110 1    
    64   32   33 am   BACKBONE|DICT|INTERRES
    65   32  111 1    
    66   33   34 2    
    67   33   35 1    
    68   35   36 1    
    69   35   37 1    
    70   35  112 1    
    71   36  113 1    
    72   36  114 1    
    73   36  115 1    
    74   37   38 am   BACKBONE|DICT|INTERRES
    75   37  116 1    
    76   38   39 2    
    77   38   40 1    
    78   40   41 1    
    79   40   42 1    
    80   40  117 1    
    81   41  118 1    
    82   41  119 1    
    83   41  120 1    
    84   42   43 am   BACKBONE|DICT|INTERRES
    85   42  121 1    
    86   43   44 2    
    87   43   45 1    
    88   45   46 1    
    89   45   47 1    
    90   45  122 1    
    91   46  123 1    
    92   46  124 1    
    93   46  125 1    
    94   47   48 am   BACKBONE|DICT|INTERRES
    95   47  126 1    
    96   48   49 2    
    97   48   50 1    
    98   50   51 1    
    99   50   52 1    
   100   50  127 1    
   101   51  128 1    
   102   51  129 1    
   103   51  130 1    
   104   52   53 am   BACKBONE|DICT|INTERRES
   105   52  131 1    
   106   53   54 2    
   107   53   55 1    
   108   55   56 1    
   109   55   59 1    
   110   55  132 1    
   111   56   57 1    
   112   56  133 1    
   113   56  134 1    
   114   57   58 1    
   115   58  135 1    
   116   58  136 1    
   117   59   60 am   BACKBONE|DICT|INTERRES
   118   59  137 1    
   119   60   61 2    
   120   60   62 1    
   121   62   63 1    
   122   62   64 1    
   123   62  138 1    
   124   63  139 1    
   125   63  140 1    
   126   63  141 1    
   127   64   65 am   BACKBONE|DICT|INTERRES
   128   64  142 1    
   129   65   66 2    
   130   65   67 1    
   131   67   68 1    
   132   67   69 1    
   133   67  143 1    
   134   68  144 1    
   135   68  145 1    
   136   68  146 1    
   137   69   70 am   BACKBONE|DICT|INTERRES
   138   69  147 1    
   139   70   71 2    
   140   70   72 1    
   141   72   73 1    
   142   72   74 1    
   143   72  148 1    
   144   73  149 1    
   145   73  150 1    
   146   73  151 1    
   147   74   75 am   BACKBONE|DICT|INTERRES
   148   74  152 1    
   149   75   76 2    
   150   75   77 1    
   151   77   78 1    
   152   77   79 1    
   153   77  153 1    
   154   78  154 1    
   155   78  155 1    
   156   78  156 1    
   157   79   80 am   BACKBONE|DICT|INTERRES
   158   79  157 1    
   159   80   81 2    
@<TRIPOS>SUBSTRUCTURE
     1 UNK         1 GROUP             0       ****    0 ROOT    
