@<TRIPOS>MOLECULE
3R207
157   159    1
SMALL
USER_CHARGES


@<TRIPOS>ATOM
      1 CA        -45.8108  -29.1255   10.7730 C.3       0 UNK        -0.1975 
      2 C         -46.4802  -28.9025    9.4256 C.2       0 UNK         0.4852 
      3 O         -45.8056  -28.9344    8.3958 O.2       0 UNK        -0.5216 
      4 N         -47.8022  -28.6788    9.4200 N.am      1 UNK        -0.4461 
      5 CA        -48.6062  -28.4704    8.2116 C.3       1 UNK         0.0864 
      6 C6        -50.1191  -28.4140    8.5285 C.3       14 UNK        -0.0898 
      7 S7        -51.1204  -28.7676    7.0477 S.3       14 UNK        -0.2598 
      8 C8        -52.7780  -28.9592    7.7747 C.3       14 UNK         0.0286 
      9 C9        -53.3216  -27.6672    8.3737 C.ar      14 UNK        -0.0844 
     10 C10       -53.3666  -26.4920    7.6155 C.ar      14 UNK        -0.0881 
     11 C11       -53.9021  -25.3185    8.1533 C.ar      14 UNK        -0.0643 
     12 C12       -54.4263  -25.3345    9.4496 C.ar      14 UNK        -0.0930 
     13 C13       -54.4019  -26.5054   10.2125 C.ar      14 UNK        -0.0827 
     14 C14       -53.8265  -27.6616    9.6772 C.ar      14 UNK        -0.1249 
     15 C15       -55.0101  -26.5155   11.6077 C.3       14 UNK         0.0141 
     16 S16       -56.8043  -26.8320   11.5681 S.3       14 UNK        -0.2313 
     17 C17       -56.8715  -28.6421   11.3315 C.3       14 UNK        -0.0915 
     18 CA        -57.2757  -29.4172   12.6138 C.3       13 UNK         0.0968 
     19 C         -57.3572  -30.9457   12.3235 C.2       13 UNK         0.5732 
     20 N         -56.4789  -31.7820   12.8682 N.am      13 UNK        -0.7310 
     21 O         -58.2411  -31.3808   11.5892 O.2       13 UNK        -0.5035 
     22 N         -56.4159  -29.0651   13.7516 N.am      13 UNK        -0.4233 
     23 C         -56.6734  -29.3400   15.0353 C.2       13 UNK         0.4989 
     24 O         -57.7327  -29.8295   15.4311 O.2       13 UNK        -0.4996 
     25 CA        -55.5510  -29.0127   16.0411 C.3       12 UNK         0.0216 
     26 CB        -55.5853  -29.9277   17.2831 C.3       12 UNK        -0.1964 
     27 N         -54.2061  -29.0023   15.4460 N.am      12 UNK        -0.4276 
     28 C         -53.5685  -30.0131   14.8336 C.2       12 UNK         0.5020 
     29 O         -54.0722  -31.1180   14.6262 O.2       12 UNK        -0.5489 
     30 CA        -52.1375  -29.7359   14.3434 C.3       11 UNK         0.0294 
     31 CB        -52.1474  -29.2290   12.8911 C.3       11 UNK        -0.2019 
     32 N         -51.4471  -28.7696   15.2044 N.am      11 UNK        -0.4493 
     33 C         -50.7177  -29.1067   16.2788 C.2       11 UNK         0.4932 
     34 O         -50.4338  -30.2672   16.5765 O.2       11 UNK        -0.5029 
     35 CA        -50.2406  -27.9658   17.1978 C.3       10 UNK         0.0280 
     36 CB        -48.8291  -27.4969   16.8161 C.3       10 UNK        -0.1976 
     37 N         -51.1604  -26.8244   17.2087 N.am      10 UNK        -0.4242 
     38 C         -52.3508  -26.8393   17.8293 C.2       10 UNK         0.5072 
     39 O         -52.7439  -27.7789   18.5208 O.2       10 UNK        -0.5224 
     40 CA        -53.2809  -25.6245   17.6463 C.3       9 UNK         0.0343 
     41 CB        -53.2268  -24.7178   18.8866 C.3       9 UNK        -0.2003 
     42 N         -53.0219  -24.8148   16.4523 N.am      9 UNK        -0.4272 
     43 C         -53.0724  -25.2438   15.1842 C.2       9 UNK         0.4988 
     44 O         -53.3080  -26.4118   14.8677 O.2       9 UNK        -0.5108 
     45 CA        -52.7809  -24.2157   14.0755 C.3       8 UNK         0.0248 
     46 CB        -52.5271  -22.7777   14.5854 C.3       8 UNK        -0.2001 
     47 N         -51.6772  -24.6528   13.2142 N.am      8 UNK        -0.4140 
     48 C         -50.4214  -24.9323   13.5964 C.2       8 UNK         0.5028 
     49 O         -50.0492  -24.9260   14.7715 O.2       8 UNK        -0.5428 
     50 CA        -49.3994  -25.2898   12.4974 C.3       7 UNK         0.0264 
     51 CB        -48.9703  -26.7608   12.6193 C.3       7 UNK        -0.1988 
     52 N         -49.8443  -25.0487   11.1192 N.am      7 UNK        -0.4454 
     53 C         -50.0785  -23.8502   10.5656 C.2       7 UNK         0.5027 
     54 O         -50.0165  -22.7847   11.1798 O.2       7 UNK        -0.5083 
     55 CA        -50.4357  -23.8691    9.0693 C.3       6 UNK         0.0844 
     56 C56       -51.6967  -23.0240    8.7399 C.3       14 UNK        -0.0967 
     57 S57       -52.2823  -23.3366    7.0392 S.3       14 UNK        -0.2604 
     58 C58       -53.9402  -24.0408    7.3247 C.3       14 UNK         0.0134 
     59 N         -49.2345  -23.5518    8.2902 N.am      6 UNK        -0.4116 
     60 C         -48.6664  -22.3507    8.0955 C.2       5 UNK         0.5034 
     61 O         -49.1545  -21.2745    8.4444 O.2       5 UNK        -0.5045 
     62 CA        -47.2929  -22.3720    7.3965 C.3       5 UNK         0.0224 
     63 CB        -46.6290  -20.9813    7.3020 C.3       5 UNK        -0.1978 
     64 N         -46.3819  -23.3451    8.0100 N.am      5 UNK        -0.4737 
     65 C         -45.9564  -23.3837    9.2836 C.2       4 UNK         0.5027 
     66 O         -46.2034  -22.5125   10.1171 O.2       4 UNK        -0.5211 
     67 CA        -45.1384  -24.6138    9.7215 C.3       4 UNK         0.0297 
     68 CB        -45.8863  -25.3837   10.8220 C.3       4 UNK        -0.1993 
     69 N         -44.8648  -25.5285    8.6107 N.am      4 UNK        -0.4486 
     70 C         -43.8032  -25.4500    7.7968 C.2       3 UNK         0.4961 
     71 O         -42.8681  -24.6666    7.9616 O.2       3 UNK        -0.5105 
     72 CA        -43.8010  -26.3765    6.5670 C.3       3 UNK         0.0299 
     73 CB        -42.9858  -27.6494    6.8453 C.3       3 UNK        -0.1972 
     74 N         -45.1529  -26.7356    6.1201 N.am      3 UNK        -0.4305 
     75 C         -46.0022  -25.8751    5.5355 C.2       2 UNK         0.5006 
     76 O         -45.7196  -24.7022    5.2944 O.2       2 UNK        -0.5106 
     77 CA        -47.4191  -26.3746    5.2031 C.3       2 UNK         0.0296 
     78 CB        -47.4800  -26.8987    3.7597 C.3       2 UNK        -0.2002 
     79 N         -47.9103  -27.4068    6.1172 N.am      2 UNK        -0.4032 
     80 C         -48.1416  -27.2269    7.4245 C.2       1 UNK         0.5000 
     81 O         -47.9902  -26.1500    8.0103 O.2       1 UNK        -0.5238 
     82 H82       -46.4395  -28.7989   11.6007 H         1 UNK         0.0889 
     83 H83       -44.8715  -28.5756   10.8223 H         1 UNK         0.0889 
     84 H84       -45.5893  -30.1837   10.9077 H         1 UNK         0.0889 
     85 H85       -48.3067  -28.6710   10.2932 H         1 UNK         0.3028 
     86 H86       -48.4274  -29.3519    7.5911 H         1 UNK         0.0864 
     87 H87       -50.3730  -29.1627    9.2809 H         1 UNK         0.0720 
     88 H88       -50.4101  -27.4488    8.9464 H         1 UNK         0.0720 
     89 H89       -52.7469  -29.7551    8.5206 H         1 UNK         0.0814 
     90 H90       -53.4640  -29.2962    6.9966 H         1 UNK         0.0814 
     91 H91       -52.9801  -26.4879    6.6054 H         1 UNK         0.1469 
     92 H92       -54.8678  -24.4377    9.8626 H         1 UNK         0.1381 
     93 H93       -53.7964  -28.5680   10.2649 H         1 UNK         0.1206 
     94 H94       -54.8490  -25.5474   12.0793 H         1 UNK         0.0813 
     95 H95       -54.5153  -27.2475   12.2447 H         1 UNK         0.0813 
     96 H96       -55.9130  -29.0028   10.9609 H         1 UNK         0.0638 
     97 H97       -57.5905  -28.8356   10.5334 H         1 UNK         0.0638 
     98 H98       -58.2891  -29.1078   12.8760 H         1 UNK         0.0568 
     99 H99       -56.5536  -32.7664   12.6689 H         1 UNK         0.3450 
    100 H100      -55.7415  -31.4492   13.4800 H         1 UNK         0.3450 
    101 H101      -55.5232  -28.6590   13.5240 H         1 UNK         0.2987 
    102 H102      -55.7389  -27.9920   16.3773 H         1 UNK         0.0766 
    103 H103      -56.5327  -29.8345   17.8153 H         1 UNK         0.0798 
    104 H104      -54.7942  -29.6686   17.9869 H         1 UNK         0.0798 
    105 H105      -55.4642  -30.9776   17.0144 H         1 UNK         0.0798 
    106 H106      -53.7475  -28.0935   15.4425 H         1 UNK         0.3198 
    107 H107      -51.6063  -30.6903   14.3569 H         1 UNK         0.0843 
    108 H108      -52.4630  -28.1884   12.8217 H         1 UNK         0.0831 
    109 H109      -52.8192  -29.8228   12.2693 H         1 UNK         0.0831 
    110 H110      -51.1566  -29.3100   12.4463 H         1 UNK         0.0831 
    111 H111      -51.6630  -27.7919   15.0541 H         1 UNK         0.3133 
    112 H112      -50.1871  -28.3688   18.2116 H         1 UNK         0.0566 
    113 H113      -48.4466  -26.7705   17.5333 H         1 UNK         0.0814 
    114 H114      -48.8097  -27.0333   15.8322 H         1 UNK         0.0814 
    115 H115      -48.1295  -28.3337   16.7980 H         1 UNK         0.0814 
    116 H116      -50.9030  -26.0186   16.6504 H         1 UNK         0.3091 
    117 H117      -54.2965  -26.0151   17.5556 H         1 UNK         0.0702 
    118 H118      -53.9593  -23.9128   18.8236 H         1 UNK         0.0785 
    119 H119      -52.2412  -24.2682   19.0147 H         1 UNK         0.0785 
    120 H120      -53.4478  -25.2821   19.7939 H         1 UNK         0.0785 
    121 H121      -52.7890  -23.8452   16.6111 H         1 UNK         0.2998 
    122 H122      -53.6728  -24.1811   13.4514 H         1 UNK         0.0697 
    123 H123      -52.3674  -22.0944   13.7509 H         1 UNK         0.0825 
    124 H124      -51.6478  -22.7137   15.2278 H         1 UNK         0.0825 
    125 H125      -53.3823  -22.3959   15.1448 H         1 UNK         0.0825 
    126 H126      -51.8897  -24.7310   12.2312 H         1 UNK         0.3029 
    127 H127      -48.5228  -24.6622   12.6715 H         1 UNK         0.0897 
    128 H128      -49.8161  -27.4355   12.4991 H         1 UNK         0.0792 
    129 H129      -48.5270  -26.9613   13.5936 H         1 UNK         0.0792 
    130 H130      -48.2205  -27.0226   11.8757 H         1 UNK         0.0792 
    131 H131      -49.9190  -25.8646   10.5303 H         1 UNK         0.3086 
    132 H132      -50.6783  -24.9018    8.8112 H         1 UNK         0.0583 
    133 H133      -52.4978  -23.2529    9.4434 H         1 UNK         0.1020 
    134 H134      -51.5143  -21.9565    8.8630 H         1 UNK         0.1020 
    135 H135      -54.5682  -23.2866    7.8018 H         1 UNK         0.0694 
    136 H136      -54.4020  -24.2547    6.3598 H         1 UNK         0.0694 
    137 H137      -48.7003  -24.3713    8.0126 H         1 UNK         0.2989 
    138 H138      -47.4757  -22.7168    6.3772 H         1 UNK         0.1055 
    139 H139      -46.4516  -20.5467    8.2862 H         1 UNK         0.0806 
    140 H140      -47.2608  -20.2849    6.7494 H         1 UNK         0.0806 
    141 H141      -45.6731  -21.0339    6.7810 H         1 UNK         0.0806 
    142 H142      -46.0920  -24.0988    7.4001 H         1 UNK         0.3061 
    143 H143      -44.1975  -24.2494   10.1391 H         1 UNK         0.0734 
    144 H144      -45.2918  -26.2146   11.1988 H         1 UNK         0.0832 
    145 H145      -46.1080  -24.7385   11.6730 H         1 UNK         0.0832 
    146 H146      -46.8344  -25.7769   10.4560 H         1 UNK         0.0832 
    147 H147      -45.5931  -26.1944    8.3875 H         1 UNK         0.3156 
    148 H148      -43.3112  -25.8383    5.7526 H         1 UNK         0.0589 
    149 H149      -43.3952  -28.2225    7.6771 H         1 UNK         0.0808 
    150 H150      -41.9552  -27.4004    7.1022 H         1 UNK         0.0808 
    151 H151      -42.9522  -28.3003    5.9716 H         1 UNK         0.0808 
    152 H152      -45.4666  -27.6747    6.3299 H         1 UNK         0.3098 
    153 H153      -48.0926  -25.5184    5.2824 H         1 UNK         0.0720 
    154 H154      -48.4976  -27.1713    3.4788 H         1 UNK         0.0791 
    155 H155      -46.8454  -27.7748    3.6194 H         1 UNK         0.0791 
    156 H156      -47.1448  -26.1372    3.0538 H         1 UNK         0.0791 
    157 H157      -48.0739  -28.3202    5.7180 H         1 UNK         0.3028 
@<TRIPOS>BOND
     1    1    2 1    
     2    1   82 1    
     3    1   83 1    
     4    1   84 1    
     5    2    3 2    
     6    2    4 am   BACKBONE|DICT|INTERRES
     7    4    5 1    
     8    4   85 1    
     9    5    6 1    
    10    5   80 1    
    11    5   86 1    
    12    6    7 1    
    13    6   87 1    
    14    6   88 1    
    15    7    8 1    
    16    8    9 1    
    17    8   89 1    
    18    8   90 1    
    19    9   10 ar   
    20    9   14 ar   
    21   10   11 ar   
    22   10   91 1    
    23   11   12 ar   
    24   11   58 1    
    25   12   13 ar   
    26   12   92 1    
    27   13   14 ar   
    28   13   15 1    
    29   14   93 1    
    30   15   16 1    
    31   15   94 1    
    32   15   95 1    
    33   16   17 1    
    34   17   18 1    
    35   17   96 1    
    36   17   97 1    
    37   18   19 1    
    38   18   22 1    
    39   18   98 1    
    40   19   20 am   BACKBONE|DICT|INTERRES
    41   19   21 2    
    42   20   99 1    
    43   20  100 1    
    44   22   23 am   BACKBONE|DICT|INTERRES
    45   22  101 1    
    46   23   24 2    
    47   23   25 1    
    48   25   26 1    
    49   25   27 1    
    50   25  102 1    
    51   26  103 1    
    52   26  104 1    
    53   26  105 1    
    54   27   28 am   BACKBONE|DICT|INTERRES
    55   27  106 1    
    56   28   29 2    
    57   28   30 1    
    58   30   31 1    
    59   30   32 1    
    60   30  107 1    
    61   31  108 1    
    62   31  109 1    
    63   31  110 1    
    64   32   33 am   BACKBONE|DICT|INTERRES
    65   32  111 1    
    66   33   34 2    
    67   33   35 1    
    68   35   36 1    
    69   35   37 1    
    70   35  112 1    
    71   36  113 1    
    72   36  114 1    
    73   36  115 1    
    74   37   38 am   BACKBONE|DICT|INTERRES
    75   37  116 1    
    76   38   39 2    
    77   38   40 1    
    78   40   41 1    
    79   40   42 1    
    80   40  117 1    
    81   41  118 1    
    82   41  119 1    
    83   41  120 1    
    84   42   43 am   BACKBONE|DICT|INTERRES
    85   42  121 1    
    86   43   44 2    
    87   43   45 1    
    88   45   46 1    
    89   45   47 1    
    90   45  122 1    
    91   46  123 1    
    92   46  124 1    
    93   46  125 1    
    94   47   48 am   BACKBONE|DICT|INTERRES
    95   47  126 1    
    96   48   49 2    
    97   48   50 1    
    98   50   51 1    
    99   50   52 1    
   100   50  127 1    
   101   51  128 1    
   102   51  129 1    
   103   51  130 1    
   104   52   53 am   BACKBONE|DICT|INTERRES
   105   52  131 1    
   106   53   54 2    
   107   53   55 1    
   108   55   56 1    
   109   55   59 1    
   110   55  132 1    
   111   56   57 1    
   112   56  133 1    
   113   56  134 1    
   114   57   58 1    
   115   58  135 1    
   116   58  136 1    
   117   59   60 am   BACKBONE|DICT|INTERRES
   118   59  137 1    
   119   60   61 2    
   120   60   62 1    
   121   62   63 1    
   122   62   64 1    
   123   62  138 1    
   124   63  139 1    
   125   63  140 1    
   126   63  141 1    
   127   64   65 am   BACKBONE|DICT|INTERRES
   128   64  142 1    
   129   65   66 2    
   130   65   67 1    
   131   67   68 1    
   132   67   69 1    
   133   67  143 1    
   134   68  144 1    
   135   68  145 1    
   136   68  146 1    
   137   69   70 am   BACKBONE|DICT|INTERRES
   138   69  147 1    
   139   70   71 2    
   140   70   72 1    
   141   72   73 1    
   142   72   74 1    
   143   72  148 1    
   144   73  149 1    
   145   73  150 1    
   146   73  151 1    
   147   74   75 am   BACKBONE|DICT|INTERRES
   148   74  152 1    
   149   75   76 2    
   150   75   77 1    
   151   77   78 1    
   152   77   79 1    
   153   77  153 1    
   154   78  154 1    
   155   78  155 1    
   156   78  156 1    
   157   79   80 am   BACKBONE|DICT|INTERRES
   158   79  157 1    
   159   80   81 2    
@<TRIPOS>SUBSTRUCTURE
     1 UNK         1 GROUP             0       ****    0 ROOT    
