@<TRIPOS>MOLECULE
3R207
157   159    1
SMALL
USER_CHARGES


@<TRIPOS>ATOM
      1 CA        -45.7369  -30.0422    5.7715 C.3       0 UNK        -0.1975 
      2 C         -47.1353  -29.6231    6.1987 C.2       0 UNK         0.4852 
      3 O         -47.2904  -29.0018    7.2486 O.2       0 UNK        -0.5216 
      4 N         -48.1502  -29.9486    5.3861 N.am      1 UNK        -0.4461 
      5 CA        -49.5813  -29.6667    5.5732 C.3       1 UNK         0.0864 
      6 C6        -50.1696  -30.2818    6.8719 C.3       14 UNK        -0.0898 
      7 S7        -51.9804  -30.5024    6.7709 S.3       14 UNK        -0.2598 
      8 C8        -52.4438  -30.7603    8.5154 C.3       14 UNK         0.0286 
      9 C9        -52.0374  -29.5967    9.4092 C.ar      14 UNK        -0.0844 
     10 C10       -51.1010  -29.7935   10.4289 C.ar      14 UNK        -0.0881 
     11 C11       -50.7068  -28.7298   11.2445 C.ar      14 UNK        -0.0643 
     12 C12       -51.2544  -27.4629   11.0314 C.ar      14 UNK        -0.0930 
     13 C13       -52.1858  -27.2508   10.0128 C.ar      14 UNK        -0.0827 
     14 C14       -52.5845  -28.3243    9.2117 C.ar      14 UNK        -0.1249 
     15 C15       -52.7164  -25.8493    9.7564 C.3       14 UNK         0.0141 
     16 S16       -53.7691  -25.2507   11.1131 S.3       14 UNK        -0.2313 
     17 C17       -55.3591  -26.0498   10.7137 C.3       14 UNK        -0.0915 
     18 CA        -56.1702  -26.3978   11.9932 C.3       13 UNK         0.0968 
     19 C         -57.6705  -26.7163   11.7214 C.2       13 UNK         0.5732 
     20 N         -58.4386  -27.0597   12.7478 N.am      13 UNK        -0.7310 
     21 O         -58.1512  -26.6461   10.5919 O.2       13 UNK        -0.5035 
     22 N         -55.5016  -27.4069   12.8291 N.am      13 UNK        -0.4233 
     23 C         -55.4015  -28.7206   12.5756 C.2       13 UNK         0.4989 
     24 O         -55.8310  -29.2700   11.5606 O.2       13 UNK        -0.4996 
     25 CA        -54.7352  -29.5795   13.6623 C.3       12 UNK         0.0216 
     26 CB        -53.2056  -29.5385   13.5349 C.3       12 UNK        -0.1964 
     27 N         -55.1276  -29.1295   14.9981 N.am      12 UNK        -0.4276 
     28 C         -56.1894  -29.5943   15.6715 C.2       12 UNK         0.5020 
     29 O         -56.8900  -30.5312   15.2861 O.2       12 UNK        -0.5489 
     30 CA        -56.5414  -28.8987   17.0006 C.3       11 UNK         0.0294 
     31 CB        -55.8998  -29.6437   18.1825 C.3       11 UNK        -0.2019 
     32 N         -56.1450  -27.4888   17.0466 N.am      11 UNK        -0.4493 
     33 C         -56.6677  -26.5209   16.2801 C.2       11 UNK         0.4932 
     34 O         -57.5917  -26.6980   15.4866 O.2       11 UNK        -0.5029 
     35 CA        -56.0160  -25.1294   16.3770 C.3       10 UNK         0.0280 
     36 CB        -56.7514  -24.2642   17.4124 C.3       10 UNK        -0.1976 
     37 N         -54.5801  -25.1550   16.6892 N.am      10 UNK        -0.4242 
     38 C         -53.6447  -25.7601   15.9446 C.2       10 UNK         0.5072 
     39 O         -53.8963  -26.4325   14.9425 O.2       10 UNK        -0.5224 
     40 CA        -52.1926  -25.6590   16.4324 C.3       9 UNK         0.0343 
     41 CB        -51.7714  -26.9668   17.1226 C.3       9 UNK        -0.2003 
     42 N         -51.2829  -25.3937   15.3184 N.am      9 UNK        -0.4272 
     43 C         -51.2066  -24.2306   14.6560 C.2       9 UNK         0.4988 
     44 O         -51.8729  -23.2365   14.9523 O.2       9 UNK        -0.5108 
     45 CA        -50.2216  -24.1688   13.4688 C.3       8 UNK         0.0248 
     46 CB        -49.8029  -22.7241   13.1236 C.3       8 UNK        -0.2001 
     47 N         -49.0386  -25.0294   13.6342 N.am      8 UNK        -0.4140 
     48 C         -48.0913  -24.9373   14.5827 C.2       8 UNK         0.5028 
     49 O         -48.0935  -24.0933   15.4795 O.2       8 UNK        -0.5428 
     50 CA        -46.9531  -25.9779   14.5517 C.3       7 UNK         0.0264 
     51 CB        -47.1459  -27.0078   15.6780 C.3       7 UNK        -0.1988 
     52 N         -46.8143  -26.6953   13.2793 N.am      7 UNK        -0.4454 
     53 C         -46.3785  -26.1660   12.1282 C.2       7 UNK         0.5027 
     54 O         -46.0309  -24.9891   12.0152 O.2       7 UNK        -0.5083 
     55 CA        -46.3527  -27.1245   10.9152 C.3       6 UNK         0.0844 
     56 C56       -47.7281  -27.7902   10.6575 C.3       14 UNK        -0.0967 
     57 S57       -48.0211  -29.2684   11.6903 S.3       14 UNK        -0.2604 
     58 C58       -49.6865  -28.9471   12.3524 C.3       14 UNK         0.0134 
     59 N         -45.8942  -26.4477    9.7041 N.am      6 UNK        -0.4116 
     60 C         -44.6197  -26.2306    9.3621 C.2       5 UNK         0.5034 
     61 O         -43.6523  -26.5828   10.0387 O.2       5 UNK        -0.5045 
     62 CA        -44.3836  -25.5101    8.0273 C.3       5 UNK         0.0224 
     63 CB        -44.5679  -26.4831    6.8506 C.3       5 UNK        -0.1978 
     64 N         -45.2971  -24.3779    7.8569 N.am      5 UNK        -0.4737 
     65 C         -44.9484  -23.0910    7.9916 C.2       4 UNK         0.5027 
     66 O         -43.8113  -22.7169    8.2804 O.2       4 UNK        -0.5211 
     67 CA        -46.0363  -22.0305    7.7355 C.3       4 UNK         0.0297 
     68 CB        -45.9119  -21.4750    6.3072 C.3       4 UNK        -0.1993 
     69 N         -47.3951  -22.5384    7.9323 N.am      4 UNK        -0.4486 
     70 C         -47.9530  -22.7720    9.1280 C.2       3 UNK         0.4961 
     71 O         -47.4139  -22.4896   10.1962 O.2       3 UNK        -0.5105 
     72 CA        -49.3464  -23.4324    9.1382 C.3       3 UNK         0.0299 
     73 CB        -50.4338  -22.3719    9.3820 C.3       3 UNK        -0.1972 
     74 N         -49.6712  -24.1795    7.9152 N.am      3 UNK        -0.4305 
     75 C         -49.0145  -25.2604    7.4730 C.2       2 UNK         0.5006 
     76 O         -48.0291  -25.7441    8.0339 O.2       2 UNK        -0.5106 
     77 CA        -49.4832  -25.8422    6.1391 C.3       2 UNK         0.0296 
     78 CB        -48.7168  -25.1934    4.9716 C.3       2 UNK        -0.2002 
     79 N         -49.2605  -27.2841    6.1397 N.am      2 UNK        -0.4032 
     80 C         -49.9413  -28.1721    5.4071 C.2       1 UNK         0.5000 
     81 O         -50.8157  -27.8528    4.5981 O.2       1 UNK        -0.5238 
     82 H82       -45.7583  -30.7336    4.9293 H         1 UNK         0.0889 
     83 H83       -45.2242  -30.5332    6.5983 H         1 UNK         0.0889 
     84 H84       -45.1557  -29.1680    5.4804 H         1 UNK         0.0889 
     85 H85       -47.9335  -30.4325    4.5253 H         1 UNK         0.3028 
     86 H86       -50.0556  -30.1807    4.7351 H         1 UNK         0.0864 
     87 H87       -49.9080  -29.6727    7.7385 H         1 UNK         0.0720 
     88 H88       -49.7331  -31.2652    7.0523 H         1 UNK         0.0720 
     89 H89       -51.9990  -31.6940    8.8632 H         1 UNK         0.0814 
     90 H90       -53.5246  -30.8942    8.5783 H         1 UNK         0.0814 
     91 H91       -50.6681  -30.7718   10.5869 H         1 UNK         0.1469 
     92 H92       -50.9528  -26.6339   11.6525 H         1 UNK         0.1381 
     93 H93       -53.3015  -28.1691    8.4172 H         1 UNK         0.1206 
     94 H94       -51.8684  -25.1735    9.6500 H         1 UNK         0.0813 
     95 H95       -53.2655  -25.7993    8.8149 H         1 UNK         0.0813 
     96 H96       -55.9118  -25.3548   10.0795 H         1 UNK         0.0638 
     97 H97       -55.1891  -26.9455   10.1143 H         1 UNK         0.0638 
     98 H98       -56.1992  -25.4927   12.6012 H         1 UNK         0.0568 
     99 H99       -58.0721  -27.0587   13.6959 H         1 UNK         0.3450 
    100 H100      -59.4105  -27.2684   12.5867 H         1 UNK         0.3450 
    101 H101      -55.0420  -27.0425   13.6595 H         1 UNK         0.2987 
    102 H102      -55.0532  -30.6143   13.5172 H         1 UNK         0.0766 
    103 H103      -52.8987  -29.9615   12.5791 H         1 UNK         0.0798 
    104 H104      -52.7226  -30.1231   14.3177 H         1 UNK         0.0798 
    105 H105      -52.8161  -28.5208   13.5834 H         1 UNK         0.0798 
    106 H106      -54.6406  -28.3159   15.3557 H         1 UNK         0.3198 
    107 H107      -57.6268  -28.9441   17.1148 H         1 UNK         0.0843 
    108 H108      -54.8103  -29.6168   18.1352 H         1 UNK         0.0831 
    109 H109      -56.1990  -30.6929   18.1895 H         1 UNK         0.0831 
    110 H110      -56.2071  -29.2158   19.1369 H         1 UNK         0.0831 
    111 H111      -55.3971  -27.2439   17.6790 H         1 UNK         0.3133 
    112 H112      -56.1249  -24.6550   15.3993 H         1 UNK         0.0566 
    113 H113      -56.3728  -23.2419   17.4178 H         1 UNK         0.0814 
    114 H114      -57.8180  -24.2099   17.1885 H         1 UNK         0.0814 
    115 H115      -56.6509  -24.6664   18.4213 H         1 UNK         0.0814 
    116 H116      -54.2873  -24.6362   17.5052 H         1 UNK         0.3091 
    117 H117      -52.1075  -24.8398   17.1496 H         1 UNK         0.0702 
    118 H118      -50.7472  -26.9079   17.4919 H         1 UNK         0.0785 
    119 H119      -51.8353  -27.8208   16.4462 H         1 UNK         0.0785 
    120 H120      -52.4110  -27.1814   17.9797 H         1 UNK         0.0785 
    121 H121      -50.7240  -26.1685   14.9976 H         1 UNK         0.2998 
    122 H122      -50.7682  -24.5560   12.6088 H         1 UNK         0.0697 
    123 H123      -49.3487  -22.2196   13.9769 H         1 UNK         0.0825 
    124 H124      -50.6640  -22.1298   12.8158 H         1 UNK         0.0825 
    125 H125      -49.0839  -22.7044   12.3058 H         1 UNK         0.0825 
    126 H126      -48.9224  -25.7572   12.9467 H         1 UNK         0.3029 
    127 H127      -46.0218  -25.4377   14.7358 H         1 UNK         0.0897 
    128 H128      -46.3037  -27.6978   15.7340 H         1 UNK         0.0792 
    129 H129      -48.0542  -27.5957   15.5390 H         1 UNK         0.0792 
    130 H130      -47.2223  -26.5164   16.6492 H         1 UNK         0.0792 
    131 H131      -47.0690  -27.6750   13.2785 H         1 UNK         0.3086 
    132 H132      -45.6280  -27.9094   11.1427 H         1 UNK         0.0583 
    133 H133      -48.5347  -27.0628   10.7520 H         1 UNK         0.1020 
    134 H134      -47.7891  -28.1390    9.6259 H         1 UNK         0.1020 
    135 H135      -49.9945  -29.7977   12.9621 H         1 UNK         0.0694 
    136 H136      -49.6504  -28.0888   13.0242 H         1 UNK         0.0694 
    137 H137      -46.6305  -26.1283    9.0787 H         1 UNK         0.2989 
    138 H138      -43.3462  -25.1675    8.0193 H         1 UNK         0.1055 
    139 H139      -45.5952  -26.8429    6.7804 H         1 UNK         0.0806 
    140 H140      -43.9219  -27.3554    6.9594 H         1 UNK         0.0806 
    141 H141      -44.3154  -26.0086    5.9023 H         1 UNK         0.0806 
    142 H142      -46.2680  -24.6020    7.6771 H         1 UNK         0.3061 
    143 H143      -45.8679  -21.2098    8.4365 H         1 UNK         0.0734 
    144 H144      -46.6296  -20.6743    6.1275 H         1 UNK         0.0832 
    145 H145      -44.9175  -21.0597    6.1364 H         1 UNK         0.0832 
    146 H146      -46.0739  -22.2489    5.5557 H         1 UNK         0.0832 
    147 H147      -47.9230  -22.7698    7.1042 H         1 UNK         0.3156 
    148 H148      -49.3611  -24.1382    9.9717 H         1 UNK         0.0589 
    149 H149      -51.4143  -22.8250    9.5265 H         1 UNK         0.0808 
    150 H150      -50.2184  -21.7857   10.2759 H         1 UNK         0.0808 
    151 H151      -50.5069  -21.6712    8.5494 H         1 UNK         0.0808 
    152 H152      -50.4494  -23.8318    7.3726 H         1 UNK         0.3098 
    153 H153      -50.5523  -25.6459    6.0314 H         1 UNK         0.0720 
    154 H154      -49.0548  -25.5815    4.0106 H         1 UNK         0.0791 
    155 H155      -47.6435  -25.3759    5.0451 H         1 UNK         0.0791 
    156 H156      -48.8664  -24.1133    4.9516 H         1 UNK         0.0791 
    157 H157      -48.5498  -27.6266    6.7852 H         1 UNK         0.3028 
@<TRIPOS>BOND
     1    1    2 1    
     2    1   82 1    
     3    1   83 1    
     4    1   84 1    
     5    2    3 2    
     6    2    4 am   BACKBONE|DICT|INTERRES
     7    4    5 1    
     8    4   85 1    
     9    5    6 1    
    10    5   80 1    
    11    5   86 1    
    12    6    7 1    
    13    6   87 1    
    14    6   88 1    
    15    7    8 1    
    16    8    9 1    
    17    8   89 1    
    18    8   90 1    
    19    9   10 ar   
    20    9   14 ar   
    21   10   11 ar   
    22   10   91 1    
    23   11   12 ar   
    24   11   58 1    
    25   12   13 ar   
    26   12   92 1    
    27   13   14 ar   
    28   13   15 1    
    29   14   93 1    
    30   15   16 1    
    31   15   94 1    
    32   15   95 1    
    33   16   17 1    
    34   17   18 1    
    35   17   96 1    
    36   17   97 1    
    37   18   19 1    
    38   18   22 1    
    39   18   98 1    
    40   19   20 am   BACKBONE|DICT|INTERRES
    41   19   21 2    
    42   20   99 1    
    43   20  100 1    
    44   22   23 am   BACKBONE|DICT|INTERRES
    45   22  101 1    
    46   23   24 2    
    47   23   25 1    
    48   25   26 1    
    49   25   27 1    
    50   25  102 1    
    51   26  103 1    
    52   26  104 1    
    53   26  105 1    
    54   27   28 am   BACKBONE|DICT|INTERRES
    55   27  106 1    
    56   28   29 2    
    57   28   30 1    
    58   30   31 1    
    59   30   32 1    
    60   30  107 1    
    61   31  108 1    
    62   31  109 1    
    63   31  110 1    
    64   32   33 am   BACKBONE|DICT|INTERRES
    65   32  111 1    
    66   33   34 2    
    67   33   35 1    
    68   35   36 1    
    69   35   37 1    
    70   35  112 1    
    71   36  113 1    
    72   36  114 1    
    73   36  115 1    
    74   37   38 am   BACKBONE|DICT|INTERRES
    75   37  116 1    
    76   38   39 2    
    77   38   40 1    
    78   40   41 1    
    79   40   42 1    
    80   40  117 1    
    81   41  118 1    
    82   41  119 1    
    83   41  120 1    
    84   42   43 am   BACKBONE|DICT|INTERRES
    85   42  121 1    
    86   43   44 2    
    87   43   45 1    
    88   45   46 1    
    89   45   47 1    
    90   45  122 1    
    91   46  123 1    
    92   46  124 1    
    93   46  125 1    
    94   47   48 am   BACKBONE|DICT|INTERRES
    95   47  126 1    
    96   48   49 2    
    97   48   50 1    
    98   50   51 1    
    99   50   52 1    
   100   50  127 1    
   101   51  128 1    
   102   51  129 1    
   103   51  130 1    
   104   52   53 am   BACKBONE|DICT|INTERRES
   105   52  131 1    
   106   53   54 2    
   107   53   55 1    
   108   55   56 1    
   109   55   59 1    
   110   55  132 1    
   111   56   57 1    
   112   56  133 1    
   113   56  134 1    
   114   57   58 1    
   115   58  135 1    
   116   58  136 1    
   117   59   60 am   BACKBONE|DICT|INTERRES
   118   59  137 1    
   119   60   61 2    
   120   60   62 1    
   121   62   63 1    
   122   62   64 1    
   123   62  138 1    
   124   63  139 1    
   125   63  140 1    
   126   63  141 1    
   127   64   65 am   BACKBONE|DICT|INTERRES
   128   64  142 1    
   129   65   66 2    
   130   65   67 1    
   131   67   68 1    
   132   67   69 1    
   133   67  143 1    
   134   68  144 1    
   135   68  145 1    
   136   68  146 1    
   137   69   70 am   BACKBONE|DICT|INTERRES
   138   69  147 1    
   139   70   71 2    
   140   70   72 1    
   141   72   73 1    
   142   72   74 1    
   143   72  148 1    
   144   73  149 1    
   145   73  150 1    
   146   73  151 1    
   147   74   75 am   BACKBONE|DICT|INTERRES
   148   74  152 1    
   149   75   76 2    
   150   75   77 1    
   151   77   78 1    
   152   77   79 1    
   153   77  153 1    
   154   78  154 1    
   155   78  155 1    
   156   78  156 1    
   157   79   80 am   BACKBONE|DICT|INTERRES
   158   79  157 1    
   159   80   81 2    
@<TRIPOS>SUBSTRUCTURE
     1 UNK         1 GROUP             0       ****    0 ROOT    
