@<TRIPOS>MOLECULE
3R207
157   159    1
SMALL
USER_CHARGES


@<TRIPOS>ATOM
      1 CA        -50.7136  -33.1156    5.7181 C.3       0 UNK        -0.1975 
      2 C         -49.6190  -32.1496    5.2896 C.2       0 UNK         0.4852 
      3 O         -48.4552  -32.5433    5.2057 O.2       0 UNK        -0.5216 
      4 N         -49.9866  -30.8912    5.0140 N.am      1 UNK        -0.4461 
      5 CA        -49.0841  -29.8007    4.6228 C.3       1 UNK         0.0864 
      6 C6        -49.8454  -28.5672    4.0605 C.3       14 UNK        -0.0898 
      7 S7        -51.3846  -28.1482    4.9546 S.3       14 UNK        -0.2598 
      8 C8        -50.8900  -26.6830    5.9083 C.3       14 UNK         0.0286 
      9 C9        -51.9953  -26.2772    6.8711 C.ar      14 UNK        -0.0844 
     10 C10       -52.7963  -25.1603    6.6133 C.ar      14 UNK        -0.0881 
     11 C11       -53.7964  -24.7787    7.5154 C.ar      14 UNK        -0.0643 
     12 C12       -54.0112  -25.5448    8.6669 C.ar      14 UNK        -0.0930 
     13 C13       -53.2036  -26.6517    8.9435 C.ar      14 UNK        -0.0827 
     14 C14       -52.2042  -27.0166    8.0379 C.ar      14 UNK        -0.1249 
     15 C15       -53.3583  -27.4158   10.2489 C.3       14 UNK         0.0141 
     16 S16       -54.7942  -28.5314   10.2322 S.3       14 UNK        -0.2313 
     17 C17       -54.3899  -29.6003   11.6547 C.3       14 UNK        -0.0915 
     18 CA        -54.8712  -29.0244   13.0228 C.3       13 UNK         0.0968 
     19 C         -56.3067  -29.4774   13.4284 C.2       13 UNK         0.5732 
     20 N         -56.5992  -29.6648   14.7101 N.am      13 UNK        -0.7310 
     21 O         -57.1808  -29.6322   12.5791 O.2       13 UNK        -0.5035 
     22 N         -53.8548  -29.1770   14.0767 N.am      13 UNK        -0.4233 
     23 C         -53.3227  -30.3258   14.5157 C.2       13 UNK         0.4989 
     24 O         -53.6688  -31.4437   14.1293 O.2       13 UNK        -0.4996 
     25 CA        -52.1851  -30.1703   15.5446 C.3       12 UNK         0.0216 
     26 CB        -51.4880  -31.5007   15.9021 C.3       12 UNK        -0.1964 
     27 N         -51.2184  -29.1497   15.1149 N.am      12 UNK        -0.4276 
     28 C         -50.4393  -29.1714   14.0216 C.2       12 UNK         0.5020 
     29 O         -50.3224  -30.1431   13.2745 O.2       12 UNK        -0.5489 
     30 CA        -49.6899  -27.8744   13.6636 C.3       11 UNK         0.0294 
     31 CB        -50.3847  -27.1840   12.4801 C.3       11 UNK        -0.2019 
     32 N         -49.5842  -26.9148   14.7651 N.am      11 UNK        -0.4493 
     33 C         -48.7849  -27.0539   15.8318 C.2       11 UNK         0.4932 
     34 O         -48.0496  -28.0232   16.0183 O.2       11 UNK        -0.5029 
     35 CA        -48.8236  -25.9237   16.8701 C.3       10 UNK         0.0280 
     36 CB        -47.9380  -24.7485   16.4230 C.3       10 UNK        -0.1976 
     37 N         -50.1931  -25.4518   17.0819 N.am      10 UNK        -0.4242 
     38 C         -51.0349  -25.9448   18.0013 C.2       10 UNK         0.5072 
     39 O         -50.7268  -26.8167   18.8147 O.2       10 UNK        -0.5224 
     40 CA        -52.4675  -25.3773   18.0247 C.3       9 UNK         0.0343 
     41 CB        -52.5627  -24.2013   19.0100 C.3       9 UNK        -0.2003 
     42 N         -52.9496  -24.9456   16.7104 N.am      9 UNK        -0.4272 
     43 C         -53.2132  -25.7732   15.6905 C.2       9 UNK         0.4988 
     44 O         -53.1260  -26.9984   15.7590 O.2       9 UNK        -0.5108 
     45 CA        -53.6028  -25.1380   14.3467 C.3       8 UNK         0.0248 
     46 CB        -55.1293  -25.0041   14.2372 C.3       8 UNK        -0.2001 
     47 N         -52.9735  -23.8448   14.0573 N.am      8 UNK        -0.4140 
     48 C         -51.6589  -23.5812   14.0710 C.2       8 UNK         0.5028 
     49 O         -50.8054  -24.3779   14.4663 O.2       8 UNK        -0.5428 
     50 CA        -51.2366  -22.2149   13.5002 C.3       7 UNK         0.0264 
     51 CB        -49.7808  -21.8603   13.8527 C.3       7 UNK        -0.1988 
     52 N         -51.3911  -22.2314   12.0443 N.am      7 UNK        -0.4454 
     53 C         -52.5663  -22.1450   11.4023 C.2       7 UNK         0.5027 
     54 O         -53.6133  -21.8354   11.9756 O.2       7 UNK        -0.5083 
     55 CA        -52.6196  -22.5272    9.9065 C.3       6 UNK         0.0844 
     56 C56       -53.5565  -21.6050    9.0842 C.3       14 UNK        -0.0967 
     57 S57       -53.6285  -22.0051    7.2992 S.3       14 UNK        -0.2604 
     58 C58       -54.6313  -23.5312    7.2485 C.3       14 UNK         0.0134 
     59 N         -51.3082  -22.7192    9.2792 N.am      6 UNK        -0.4116 
     60 C         -50.5389  -23.8038    9.4332 C.2       5 UNK         0.5034 
     61 O         -50.8002  -24.7137   10.2204 O.2       5 UNK        -0.5045 
     62 CA        -49.2598  -23.8948    8.5804 C.3       5 UNK         0.0224 
     63 CB        -48.8889  -22.5923    7.8350 C.3       5 UNK        -0.1978 
     64 N         -48.1219  -24.3837    9.3636 N.am      5 UNK        -0.4737 
     65 C         -47.6097  -23.8395   10.4793 C.2       4 UNK         0.5027 
     66 O         -48.0190  -22.7890   10.9750 O.2       4 UNK        -0.5211 
     67 CA        -46.4481  -24.5840   11.1704 C.3       4 UNK         0.0297 
     68 CB        -46.8936  -25.1596   12.5259 C.3       4 UNK        -0.1993 
     69 N         -45.8814  -25.6642   10.3577 N.am      4 UNK        -0.4486 
     70 C         -45.0792  -25.4846    9.2997 C.2       3 UNK         0.4961 
     71 O         -44.6437  -24.3879    8.9481 O.2       3 UNK        -0.5105 
     72 CA        -44.7152  -26.7361    8.4797 C.3       3 UNK         0.0299 
     73 CB        -43.3411  -27.2755    8.9092 C.3       3 UNK        -0.1972 
     74 N         -45.7037  -27.8211    8.5470 N.am      3 UNK        -0.4305 
     75 C         -46.9652  -27.7489    8.0980 C.2       2 UNK         0.5006 
     76 O         -47.4847  -26.7205    7.6606 O.2       2 UNK        -0.5106 
     77 CA        -47.8013  -29.0378    8.1976 C.3       2 UNK         0.0296 
     78 CB        -48.7592  -28.9467    9.3975 C.3       2 UNK        -0.2002 
     79 N         -48.5760  -29.3263    6.9844 N.am      2 UNK        -0.4032 
     80 C         -48.0862  -29.4197    5.7372 C.2       1 UNK         0.5000 
     81 O         -46.8981  -29.2630    5.4467 O.2       1 UNK        -0.5238 
     82 H82       -50.7660  -33.9546    5.0247 H         1 UNK         0.0889 
     83 H83       -51.6925  -32.6370    5.7455 H         1 UNK         0.0889 
     84 H84       -50.4999  -33.5074    6.7122 H         1 UNK         0.0889 
     85 H85       -50.9595  -30.6266    5.0904 H         1 UNK         0.3028 
     86 H86       -48.4726  -30.1889    3.8048 H         1 UNK         0.0864 
     87 H87       -49.1972  -27.6907    3.9957 H         1 UNK         0.0720 
     88 H88       -50.1370  -28.7798    3.0308 H         1 UNK         0.0720 
     89 H89       -50.6512  -25.8673    5.2241 H         1 UNK         0.0814 
     90 H90       -49.9791  -26.8937    6.4696 H         1 UNK         0.0814 
     91 H91       -52.6331  -24.5735    5.7196 H         1 UNK         0.1469 
     92 H92       -54.7798  -25.2580    9.3713 H         1 UNK         0.1381 
     93 H93       -51.5776  -27.8721    8.2454 H         1 UNK         0.1206 
     94 H94       -52.4540  -27.9934   10.4410 H         1 UNK         0.0813 
     95 H95       -53.4534  -26.7118   11.0767 H         1 UNK         0.0813 
     96 H96       -54.8090  -30.5924   11.4774 H         1 UNK         0.0638 
     97 H97       -53.3093  -29.7522   11.6556 H         1 UNK         0.0638 
     98 H98       -54.9588  -27.9434   12.9138 H         1 UNK         0.0568 
     99 H99       -55.8978  -29.5323   15.4203 H         1 UNK         0.3450 
    100 H100      -57.5317  -29.9480   14.9662 H         1 UNK         0.3450 
    101 H101      -53.5523  -28.3204   14.5334 H         1 UNK         0.2987 
    102 H102      -52.6474  -29.7878   16.4560 H         1 UNK         0.0766 
    103 H103      -51.0532  -31.9830   15.0263 H         1 UNK         0.0798 
    104 H104      -50.6919  -31.3472   16.6305 H         1 UNK         0.0798 
    105 H105      -52.1969  -32.2048   16.3393 H         1 UNK         0.0798 
    106 H106      -51.2795  -28.2703   15.6128 H         1 UNK         0.3198 
    107 H107      -48.6792  -28.1524   13.3572 H         1 UNK         0.0843 
    108 H108      -50.3757  -27.8236   11.5982 H         1 UNK         0.0831 
    109 H109      -49.8941  -26.2505   12.2077 H         1 UNK         0.0831 
    110 H110      -51.4250  -26.9527   12.7043 H         1 UNK         0.0831 
    111 H111      -50.1061  -26.0444   14.6640 H         1 UNK         0.3133 
    112 H112      -48.4182  -26.3106   17.8075 H         1 UNK         0.0566 
    113 H113      -47.9097  -23.9651   17.1803 H         1 UNK         0.0814 
    114 H114      -46.9108  -25.0755   16.2559 H         1 UNK         0.0814 
    115 H115      -48.2922  -24.3010   15.4939 H         1 UNK         0.0814 
    116 H116      -50.5473  -24.7912   16.3977 H         1 UNK         0.3091 
    117 H117      -53.1279  -26.1722   18.3785 H         1 UNK         0.0702 
    118 H118      -53.5880  -23.8424   19.1022 H         1 UNK         0.0785 
    119 H119      -51.9382  -23.3623   18.7002 H         1 UNK         0.0785 
    120 H120      -52.2354  -24.5005   20.0068 H         1 UNK         0.0785 
    121 H121      -53.0497  -23.9522   16.5607 H         1 UNK         0.2998 
    122 H122      -53.2746  -25.8249   13.5658 H         1 UNK         0.0697 
    123 H123      -55.5217  -24.2742   14.9465 H         1 UNK         0.0825 
    124 H124      -55.6245  -25.9546   14.4418 H         1 UNK         0.0825 
    125 H125      -55.4297  -24.6942   13.2360 H         1 UNK         0.0825 
    126 H126      -53.5761  -23.1307   13.6633 H         1 UNK         0.3029 
    127 H127      -51.8854  -21.4480   13.9290 H         1 UNK         0.0897 
    128 H128      -49.5021  -20.8844   13.4550 H         1 UNK         0.0792 
    129 H129      -49.6388  -21.8253   14.9335 H         1 UNK         0.0792 
    130 H130      -49.0785  -22.5943   13.4568 H         1 UNK         0.0792 
    131 H131      -50.5852  -22.5436   11.5178 H         1 UNK         0.3086 
    132 H132      -53.0991  -23.5019    9.9288 H         1 UNK         0.0583 
    133 H133      -54.5720  -21.6353    9.4840 H         1 UNK         0.1020 
    134 H134      -53.2319  -20.5669    9.1766 H         1 UNK         0.1020 
    135 H135      -55.0818  -23.6187    6.2589 H         1 UNK         0.0694 
    136 H136      -55.4592  -23.4502    7.9545 H         1 UNK         0.0694 
    137 H137      -51.0207  -22.0075    8.6243 H         1 UNK         0.2989 
    138 H138      -49.4605  -24.6610    7.8301 H         1 UNK         0.1055 
    139 H139      -47.9716  -22.7223    7.2602 H         1 UNK         0.0806 
    140 H140      -48.7308  -21.7579    8.5196 H         1 UNK         0.0806 
    141 H141      -49.6654  -22.3039    7.1252 H         1 UNK         0.0806 
    142 H142      -47.7239  -25.2533    9.0238 H         1 UNK         0.3061 
    143 H143      -45.6662  -23.8452   11.3590 H         1 UNK         0.0734 
    144 H144      -47.3598  -24.3931   13.1460 H         1 UNK         0.0832 
    145 H145      -47.6172  -25.9638   12.4041 H         1 UNK         0.0832 
    146 H146      -46.0467  -25.5549   13.0868 H         1 UNK         0.0832 
    147 H147      -46.1772  -26.6042   10.5755 H         1 UNK         0.3156 
    148 H148      -44.6459  -26.4256    7.4349 H         1 UNK         0.0589 
    149 H149      -43.3508  -27.6330    9.9397 H         1 UNK         0.0808 
    150 H150      -43.0183  -28.0974    8.2699 H         1 UNK         0.0808 
    151 H151      -42.5781  -26.4984    8.8419 H         1 UNK         0.0808 
    152 H152      -45.3695  -28.7060    8.9022 H         1 UNK         0.3098 
    153 H153      -47.1289  -29.8837    8.3531 H         1 UNK         0.0720 
    154 H154      -48.2088  -28.8083   10.3291 H         1 UNK         0.0791 
    155 H155      -49.4445  -28.1037    9.2992 H         1 UNK         0.0791 
    156 H156      -49.3532  -29.8542    9.5087 H         1 UNK         0.0791 
    157 H157      -49.5661  -29.4758    7.1071 H         1 UNK         0.3028 
@<TRIPOS>BOND
     1    1    2 1    
     2    1   82 1    
     3    1   83 1    
     4    1   84 1    
     5    2    3 2    
     6    2    4 am   BACKBONE|DICT|INTERRES
     7    4    5 1    
     8    4   85 1    
     9    5    6 1    
    10    5   80 1    
    11    5   86 1    
    12    6    7 1    
    13    6   87 1    
    14    6   88 1    
    15    7    8 1    
    16    8    9 1    
    17    8   89 1    
    18    8   90 1    
    19    9   10 ar   
    20    9   14 ar   
    21   10   11 ar   
    22   10   91 1    
    23   11   12 ar   
    24   11   58 1    
    25   12   13 ar   
    26   12   92 1    
    27   13   14 ar   
    28   13   15 1    
    29   14   93 1    
    30   15   16 1    
    31   15   94 1    
    32   15   95 1    
    33   16   17 1    
    34   17   18 1    
    35   17   96 1    
    36   17   97 1    
    37   18   19 1    
    38   18   22 1    
    39   18   98 1    
    40   19   20 am   BACKBONE|DICT|INTERRES
    41   19   21 2    
    42   20   99 1    
    43   20  100 1    
    44   22   23 am   BACKBONE|DICT|INTERRES
    45   22  101 1    
    46   23   24 2    
    47   23   25 1    
    48   25   26 1    
    49   25   27 1    
    50   25  102 1    
    51   26  103 1    
    52   26  104 1    
    53   26  105 1    
    54   27   28 am   BACKBONE|DICT|INTERRES
    55   27  106 1    
    56   28   29 2    
    57   28   30 1    
    58   30   31 1    
    59   30   32 1    
    60   30  107 1    
    61   31  108 1    
    62   31  109 1    
    63   31  110 1    
    64   32   33 am   BACKBONE|DICT|INTERRES
    65   32  111 1    
    66   33   34 2    
    67   33   35 1    
    68   35   36 1    
    69   35   37 1    
    70   35  112 1    
    71   36  113 1    
    72   36  114 1    
    73   36  115 1    
    74   37   38 am   BACKBONE|DICT|INTERRES
    75   37  116 1    
    76   38   39 2    
    77   38   40 1    
    78   40   41 1    
    79   40   42 1    
    80   40  117 1    
    81   41  118 1    
    82   41  119 1    
    83   41  120 1    
    84   42   43 am   BACKBONE|DICT|INTERRES
    85   42  121 1    
    86   43   44 2    
    87   43   45 1    
    88   45   46 1    
    89   45   47 1    
    90   45  122 1    
    91   46  123 1    
    92   46  124 1    
    93   46  125 1    
    94   47   48 am   BACKBONE|DICT|INTERRES
    95   47  126 1    
    96   48   49 2    
    97   48   50 1    
    98   50   51 1    
    99   50   52 1    
   100   50  127 1    
   101   51  128 1    
   102   51  129 1    
   103   51  130 1    
   104   52   53 am   BACKBONE|DICT|INTERRES
   105   52  131 1    
   106   53   54 2    
   107   53   55 1    
   108   55   56 1    
   109   55   59 1    
   110   55  132 1    
   111   56   57 1    
   112   56  133 1    
   113   56  134 1    
   114   57   58 1    
   115   58  135 1    
   116   58  136 1    
   117   59   60 am   BACKBONE|DICT|INTERRES
   118   59  137 1    
   119   60   61 2    
   120   60   62 1    
   121   62   63 1    
   122   62   64 1    
   123   62  138 1    
   124   63  139 1    
   125   63  140 1    
   126   63  141 1    
   127   64   65 am   BACKBONE|DICT|INTERRES
   128   64  142 1    
   129   65   66 2    
   130   65   67 1    
   131   67   68 1    
   132   67   69 1    
   133   67  143 1    
   134   68  144 1    
   135   68  145 1    
   136   68  146 1    
   137   69   70 am   BACKBONE|DICT|INTERRES
   138   69  147 1    
   139   70   71 2    
   140   70   72 1    
   141   72   73 1    
   142   72   74 1    
   143   72  148 1    
   144   73  149 1    
   145   73  150 1    
   146   73  151 1    
   147   74   75 am   BACKBONE|DICT|INTERRES
   148   74  152 1    
   149   75   76 2    
   150   75   77 1    
   151   77   78 1    
   152   77   79 1    
   153   77  153 1    
   154   78  154 1    
   155   78  155 1    
   156   78  156 1    
   157   79   80 am   BACKBONE|DICT|INTERRES
   158   79  157 1    
   159   80   81 2    
@<TRIPOS>SUBSTRUCTURE
     1 UNK         1 GROUP             0       ****    0 ROOT    
