@<TRIPOS>MOLECULE
3R207
157   159    1
SMALL
USER_CHARGES


@<TRIPOS>ATOM
      1 CA        -53.3343  -23.8120   10.4237 C.3       0 UNK        -0.1975 
      2 C         -52.1936  -24.6595    9.8811 C.2       0 UNK         0.4852 
      3 O         -51.4803  -25.2867   10.6591 O.2       0 UNK        -0.5216 
      4 N         -52.0117  -24.6758    8.5535 N.am      1 UNK        -0.4461 
      5 CA        -50.9834  -25.4517    7.8474 C.3       1 UNK         0.0864 
      6 C6        -51.2608  -25.4379    6.3216 C.3       14 UNK        -0.0898 
      7 S7        -50.2187  -26.5911    5.3679 S.3       14 UNK        -0.2598 
      8 C8        -51.3496  -27.9839    5.0528 C.3       14 UNK         0.0286 
      9 C9        -51.8559  -28.6567    6.3248 C.ar      14 UNK        -0.0844 
     10 C10       -50.9635  -29.2233    7.2410 C.ar      14 UNK        -0.0881 
     11 C11       -51.4346  -29.8777    8.3843 C.ar      14 UNK        -0.0643 
     12 C12       -52.8137  -29.9836    8.5945 C.ar      14 UNK        -0.0930 
     13 C13       -53.7191  -29.4348    7.6789 C.ar      14 UNK        -0.0827 
     14 C14       -53.2303  -28.7608    6.5555 C.ar      14 UNK        -0.1249 
     15 C15       -55.2236  -29.6198    7.8487 C.3       14 UNK         0.0141 
     16 S16       -55.8639  -28.9187    9.4015 S.3       14 UNK        -0.2313 
     17 C17       -56.1221  -30.4430   10.3737 C.3       14 UNK        -0.0915 
     18 CA        -56.5108  -30.1676   11.8552 C.3       13 UNK         0.0968 
     19 C         -56.8389  -31.4740   12.6423 C.2       13 UNK         0.5732 
     20 N         -56.4963  -31.5929   13.9206 N.am      13 UNK        -0.7310 
     21 O         -57.4514  -32.3890   12.0961 O.2       13 UNK        -0.5035 
     22 N         -55.5782  -29.2594   12.5403 N.am      13 UNK        -0.4233 
     23 C         -54.2759  -29.4773   12.7666 C.2       13 UNK         0.4989 
     24 O         -53.6578  -30.4750   12.3943 O.2       13 UNK        -0.4996 
     25 CA        -53.5450  -28.3933   13.5772 C.3       12 UNK         0.0216 
     26 CB        -53.0776  -27.2802   12.6269 C.3       12 UNK        -0.1964 
     27 N         -54.3392  -27.7956   14.6613 N.am      12 UNK        -0.4276 
     28 C         -55.0194  -28.4471   15.6162 C.2       12 UNK         0.5020 
     29 O         -55.0904  -29.6754   15.6949 O.2       12 UNK        -0.5489 
     30 CA        -55.7321  -27.5681   16.6626 C.3       11 UNK         0.0294 
     31 CB        -56.7246  -28.3683   17.5270 C.3       11 UNK        -0.2019 
     32 N         -54.7653  -26.9051   17.5393 N.am      11 UNK        -0.4493 
     33 C         -54.0213  -25.8449   17.2013 C.2       11 UNK         0.4932 
     34 O         -54.1391  -25.2587   16.1215 O.2       11 UNK        -0.5029 
     35 CA        -52.9894  -25.3733   18.2405 C.3       10 UNK         0.0280 
     36 CB        -52.1833  -26.5461   18.8345 C.3       10 UNK        -0.1976 
     37 N         -52.0517  -24.4476   17.6114 N.am      10 UNK        -0.4242 
     38 C         -51.7645  -23.2085   18.0294 C.2       10 UNK         0.5072 
     39 O         -52.2667  -22.6926   19.0297 O.2       10 UNK        -0.5224 
     40 CA        -50.7245  -22.4008   17.2248 C.3       9 UNK         0.0343 
     41 CB        -49.4152  -22.2679   18.0209 C.3       9 UNK        -0.2003 
     42 N         -50.4194  -22.9778   15.9138 N.am      9 UNK        -0.4272 
     43 C         -51.2196  -22.9106   14.8415 C.2       9 UNK         0.4988 
     44 O         -52.2635  -22.2582   14.8089 O.2       9 UNK        -0.5108 
     45 CA        -50.7909  -23.7036   13.5926 C.3       8 UNK         0.0248 
     46 CB        -50.1296  -22.7647   12.5689 C.3       8 UNK        -0.2001 
     47 N         -49.8917  -24.8385   13.8393 N.am      8 UNK        -0.4140 
     48 C         -50.1168  -25.8899   14.6377 C.2       8 UNK         0.5028 
     49 O         -51.1040  -25.9883   15.3658 O.2       8 UNK        -0.5428 
     50 CA        -49.0534  -27.0087   14.6317 C.3       7 UNK         0.0264 
     51 CB        -49.4009  -28.1485   15.6088 C.3       7 UNK        -0.1988 
     52 N         -48.8187  -27.5870   13.3030 N.am      7 UNK        -0.4454 
     53 C         -48.1748  -26.9936   12.2898 C.2       7 UNK         0.5027 
     54 O         -47.7550  -25.8326   12.3456 O.2       7 UNK        -0.5083 
     55 CA        -47.9662  -27.8398   11.0118 C.3       6 UNK         0.0844 
     56 C56       -49.2908  -28.0853   10.2460 C.3       14 UNK        -0.0967 
     57 S57       -50.2352  -29.5130   10.8749 S.3       14 UNK        -0.2604 
     58 C58       -50.4594  -30.5140    9.3685 C.3       14 UNK         0.0134 
     59 N         -46.9666  -27.2136   10.1433 N.am      6 UNK        -0.4116 
     60 C         -45.6504  -27.1684   10.3987 C.2       5 UNK         0.5034 
     61 O         -45.1166  -27.7653   11.3365 O.2       5 UNK        -0.5045 
     62 CA        -44.7933  -26.2996    9.4554 C.3       5 UNK         0.0224 
     63 CB        -43.2838  -26.6136    9.5414 C.3       5 UNK        -0.1978 
     64 N         -45.2615  -26.3306    8.0653 N.am      5 UNK        -0.4737 
     65 C         -45.3393  -27.3998    7.2571 C.2       4 UNK         0.5027 
     66 O         -44.9295  -28.5195    7.5644 O.2       4 UNK        -0.5211 
     67 CA        -46.0136  -27.2060    5.8867 C.3       4 UNK         0.0297 
     68 CB        -47.1177  -28.2557    5.6793 C.3       4 UNK        -0.1993 
     69 N         -46.5997  -25.8694    5.7454 N.am      4 UNK        -0.4486 
     70 C         -46.0263  -24.8475    5.0948 C.2       3 UNK         0.4961 
     71 O         -44.9612  -24.9357    4.4835 O.2       3 UNK        -0.5105 
     72 CA        -46.7460  -23.4856    5.1433 C.3       3 UNK         0.0299 
     73 CB        -47.6634  -23.3262    3.9202 C.3       3 UNK        -0.1972 
     74 N         -47.5303  -23.2643    6.3618 N.am      3 UNK        -0.4305 
     75 C         -47.0393  -23.2131    7.6097 C.2       2 UNK         0.5006 
     76 O         -45.8436  -23.3205    7.8799 O.2       2 UNK        -0.5106 
     77 CA        -48.0601  -23.0808    8.7565 C.3       2 UNK         0.0296 
     78 CB        -48.2644  -21.6047    9.1319 C.3       2 UNK        -0.2002 
     79 N         -49.3597  -23.6953    8.4608 N.am      2 UNK        -0.4032 
     80 C         -49.5415  -24.9946    8.1778 C.2       1 UNK         0.5000 
     81 O         -48.6162  -25.8116    8.1522 O.2       1 UNK        -0.5238 
     82 H82       -54.0099  -24.4298   11.0144 H         1 UNK         0.0889 
     83 H83       -53.9118  -23.3446    9.6265 H         1 UNK         0.0889 
     84 H84       -52.9432  -23.0250   11.0677 H         1 UNK         0.0889 
     85 H85       -52.6387  -24.1433    7.9670 H         1 UNK         0.3028 
     86 H86       -51.0741  -26.4820    8.1966 H         1 UNK         0.0864 
     87 H87       -51.1181  -24.4355    5.9141 H         1 UNK         0.0720 
     88 H88       -52.3061  -25.6879    6.1321 H         1 UNK         0.0720 
     89 H89       -50.8259  -28.7267    4.4498 H         1 UNK         0.0814 
     90 H90       -52.1802  -27.6277    4.4415 H         1 UNK         0.0814 
     91 H91       -49.9010  -29.1593    7.0569 H         1 UNK         0.1469 
     92 H92       -53.1774  -30.5049    9.4688 H         1 UNK         0.1381 
     93 H93       -53.9242  -28.3433    5.8386 H         1 UNK         0.1206 
     94 H94       -55.7602  -29.1462    7.0253 H         1 UNK         0.0813 
     95 H95       -55.4619  -30.6823    7.7854 H         1 UNK         0.0813 
     96 H96       -55.2251  -31.0603   10.3227 H         1 UNK         0.0638 
     97 H97       -56.9093  -31.0138    9.8782 H         1 UNK         0.0638 
     98 H98       -57.4576  -29.6274   11.8349 H         1 UNK         0.0568 
     99 H99       -55.9866  -30.8591   14.4036 H         1 UNK         0.3450 
    100 H100      -56.7306  -32.4405   14.4113 H         1 UNK         0.3450 
    101 H101      -55.9860  -28.4118   12.9045 H         1 UNK         0.2987 
    102 H102      -52.6665  -28.8520   14.0350 H         1 UNK         0.0766 
    103 H103      -52.5222  -26.5058   13.1518 H         1 UNK         0.0798 
    104 H104      -53.9160  -26.7992   12.1222 H         1 UNK         0.0798 
    105 H105      -52.4207  -27.6765   11.8516 H         1 UNK         0.0798 
    106 H106      -54.2781  -26.7865   14.7608 H         1 UNK         0.3198 
    107 H107      -56.3022  -26.8085   16.1226 H         1 UNK         0.0843 
    108 H108      -56.2230  -29.1377   18.1154 H         1 UNK         0.0831 
    109 H109      -57.4677  -28.8685   16.9042 H         1 UNK         0.0831 
    110 H110      -57.2658  -27.7186   18.2150 H         1 UNK         0.0831 
    111 H111      -54.5971  -27.3446   18.4328 H         1 UNK         0.3133 
    112 H112      -53.5402  -24.8778   19.0422 H         1 UNK         0.0566 
    113 H113      -51.3947  -26.1864   19.4958 H         1 UNK         0.0814 
    114 H114      -52.8118  -27.2107   19.4276 H         1 UNK         0.0814 
    115 H115      -51.7120  -27.1441   18.0527 H         1 UNK         0.0814 
    116 H116      -51.6593  -24.7850   16.7339 H         1 UNK         0.3091 
    117 H117      -51.1354  -21.4001   17.0751 H         1 UNK         0.0702 
    118 H118      -49.5933  -21.8029   18.9916 H         1 UNK         0.0785 
    119 H119      -48.9543  -23.2393   18.2051 H         1 UNK         0.0785 
    120 H120      -48.6913  -21.6454   17.4945 H         1 UNK         0.0785 
    121 H121      -49.5785  -23.5317   15.8441 H         1 UNK         0.2998 
    122 H122      -51.7009  -24.1117   13.1496 H         1 UNK         0.0697 
    123 H123      -49.2074  -22.3310   12.9575 H         1 UNK         0.0825 
    124 H124      -50.7939  -21.9405   12.3058 H         1 UNK         0.0825 
    125 H125      -49.8865  -23.2916   11.6460 H         1 UNK         0.0825 
    126 H126      -49.0612  -24.8928   13.2535 H         1 UNK         0.3029 
    127 H127      -48.1199  -26.5558   14.9729 H         1 UNK         0.0897 
    128 H128      -48.6114  -28.8994   15.6428 H         1 UNK         0.0792 
    129 H129      -50.3301  -28.6480   15.3309 H         1 UNK         0.0792 
    130 H130      -49.5266  -27.7692   16.6239 H         1 UNK         0.0792 
    131 H131      -49.1861  -28.5160   13.1479 H         1 UNK         0.3086 
    132 H132      -47.5579  -28.8057   11.3175 H         1 UNK         0.0583 
    133 H133      -49.9306  -27.2049   10.2645 H         1 UNK         0.1020 
    134 H134      -49.0754  -28.2624    9.1920 H         1 UNK         0.1020 
    135 H135      -49.4899  -30.6875    8.8987 H         1 UNK         0.0694 
    136 H136      -50.8342  -31.4967    9.6584 H         1 UNK         0.0694 
    137 H137      -47.3367  -26.6746    9.3662 H         1 UNK         0.2989 
    138 H138      -44.9317  -25.2722    9.7968 H         1 UNK         0.1055 
    139 H139      -42.9072  -26.4468   10.5513 H         1 UNK         0.0806 
    140 H140      -42.7072  -25.9742    8.8730 H         1 UNK         0.0806 
    141 H141      -43.0685  -27.6508    9.2834 H         1 UNK         0.0806 
    142 H142      -45.6038  -25.4449    7.7102 H         1 UNK         0.3061 
    143 H143      -45.2484  -27.3662    5.1245 H         1 UNK         0.0734 
    144 H144      -47.6102  -28.1310    4.7150 H         1 UNK         0.0832 
    145 H145      -46.7116  -29.2676    5.7048 H         1 UNK         0.0832 
    146 H146      -47.8760  -28.1887    6.4592 H         1 UNK         0.0832 
    147 H147      -47.4659  -25.7113    6.2481 H         1 UNK         0.3156 
    148 H148      -45.9798  -22.7088    5.1007 H         1 UNK         0.0589 
    149 H149      -47.1038  -23.4589    2.9930 H         1 UNK         0.0808 
    150 H150      -48.4695  -24.0614    3.9213 H         1 UNK         0.0808 
    151 H151      -48.1122  -22.3333    3.8851 H         1 UNK         0.0808 
    152 H152      -48.5272  -23.1636    6.2420 H         1 UNK         0.3098 
    153 H153      -47.6446  -23.5999    9.6233 H         1 UNK         0.0720 
    154 H154      -47.3139  -21.1319    9.3838 H         1 UNK         0.0791 
    155 H155      -48.9144  -21.5007   10.0008 H         1 UNK         0.0791 
    156 H156      -48.7044  -21.0353    8.3123 H         1 UNK         0.0791 
    157 H157      -50.1683  -23.0911    8.4761 H         1 UNK         0.3028 
@<TRIPOS>BOND
     1    1    2 1    
     2    1   82 1    
     3    1   83 1    
     4    1   84 1    
     5    2    3 2    
     6    2    4 am   BACKBONE|DICT|INTERRES
     7    4    5 1    
     8    4   85 1    
     9    5    6 1    
    10    5   80 1    
    11    5   86 1    
    12    6    7 1    
    13    6   87 1    
    14    6   88 1    
    15    7    8 1    
    16    8    9 1    
    17    8   89 1    
    18    8   90 1    
    19    9   10 ar   
    20    9   14 ar   
    21   10   11 ar   
    22   10   91 1    
    23   11   12 ar   
    24   11   58 1    
    25   12   13 ar   
    26   12   92 1    
    27   13   14 ar   
    28   13   15 1    
    29   14   93 1    
    30   15   16 1    
    31   15   94 1    
    32   15   95 1    
    33   16   17 1    
    34   17   18 1    
    35   17   96 1    
    36   17   97 1    
    37   18   19 1    
    38   18   22 1    
    39   18   98 1    
    40   19   20 am   BACKBONE|DICT|INTERRES
    41   19   21 2    
    42   20   99 1    
    43   20  100 1    
    44   22   23 am   BACKBONE|DICT|INTERRES
    45   22  101 1    
    46   23   24 2    
    47   23   25 1    
    48   25   26 1    
    49   25   27 1    
    50   25  102 1    
    51   26  103 1    
    52   26  104 1    
    53   26  105 1    
    54   27   28 am   BACKBONE|DICT|INTERRES
    55   27  106 1    
    56   28   29 2    
    57   28   30 1    
    58   30   31 1    
    59   30   32 1    
    60   30  107 1    
    61   31  108 1    
    62   31  109 1    
    63   31  110 1    
    64   32   33 am   BACKBONE|DICT|INTERRES
    65   32  111 1    
    66   33   34 2    
    67   33   35 1    
    68   35   36 1    
    69   35   37 1    
    70   35  112 1    
    71   36  113 1    
    72   36  114 1    
    73   36  115 1    
    74   37   38 am   BACKBONE|DICT|INTERRES
    75   37  116 1    
    76   38   39 2    
    77   38   40 1    
    78   40   41 1    
    79   40   42 1    
    80   40  117 1    
    81   41  118 1    
    82   41  119 1    
    83   41  120 1    
    84   42   43 am   BACKBONE|DICT|INTERRES
    85   42  121 1    
    86   43   44 2    
    87   43   45 1    
    88   45   46 1    
    89   45   47 1    
    90   45  122 1    
    91   46  123 1    
    92   46  124 1    
    93   46  125 1    
    94   47   48 am   BACKBONE|DICT|INTERRES
    95   47  126 1    
    96   48   49 2    
    97   48   50 1    
    98   50   51 1    
    99   50   52 1    
   100   50  127 1    
   101   51  128 1    
   102   51  129 1    
   103   51  130 1    
   104   52   53 am   BACKBONE|DICT|INTERRES
   105   52  131 1    
   106   53   54 2    
   107   53   55 1    
   108   55   56 1    
   109   55   59 1    
   110   55  132 1    
   111   56   57 1    
   112   56  133 1    
   113   56  134 1    
   114   57   58 1    
   115   58  135 1    
   116   58  136 1    
   117   59   60 am   BACKBONE|DICT|INTERRES
   118   59  137 1    
   119   60   61 2    
   120   60   62 1    
   121   62   63 1    
   122   62   64 1    
   123   62  138 1    
   124   63  139 1    
   125   63  140 1    
   126   63  141 1    
   127   64   65 am   BACKBONE|DICT|INTERRES
   128   64  142 1    
   129   65   66 2    
   130   65   67 1    
   131   67   68 1    
   132   67   69 1    
   133   67  143 1    
   134   68  144 1    
   135   68  145 1    
   136   68  146 1    
   137   69   70 am   BACKBONE|DICT|INTERRES
   138   69  147 1    
   139   70   71 2    
   140   70   72 1    
   141   72   73 1    
   142   72   74 1    
   143   72  148 1    
   144   73  149 1    
   145   73  150 1    
   146   73  151 1    
   147   74   75 am   BACKBONE|DICT|INTERRES
   148   74  152 1    
   149   75   76 2    
   150   75   77 1    
   151   77   78 1    
   152   77   79 1    
   153   77  153 1    
   154   78  154 1    
   155   78  155 1    
   156   78  156 1    
   157   79   80 am   BACKBONE|DICT|INTERRES
   158   79  157 1    
   159   80   81 2    
@<TRIPOS>SUBSTRUCTURE
     1 UNK         1 GROUP             0       ****    0 ROOT    
