@<TRIPOS>MOLECULE
3R207
157   159    1
SMALL
USER_CHARGES


@<TRIPOS>ATOM
      1 CA        -48.0204  -32.8861    2.0522 C.3       0 UNK        -0.1975 
      2 C         -48.7070  -32.0495    3.1218 C.2       0 UNK         0.4852 
      3 O         -49.8339  -32.3591    3.5109 O.2       0 UNK        -0.5216 
      4 N         -48.0390  -30.9931    3.5960 N.am      1 UNK        -0.4461 
      5 CA        -48.5391  -30.0409    4.5855 C.3       1 UNK         0.0864 
      6 C6        -48.5620  -30.6218    6.0268 C.3       14 UNK        -0.0898 
      7 S7        -49.8351  -29.8332    7.0697 S.3       14 UNK        -0.2598 
      8 C8        -51.1376  -31.0999    7.0928 C.3       14 UNK         0.0286 
      9 C9        -52.2126  -30.7482    8.1098 C.ar      14 UNK        -0.0844 
     10 C10       -51.9853  -30.9878    9.4669 C.ar      14 UNK        -0.0881 
     11 C11       -52.9572  -30.6742   10.4213 C.ar      14 UNK        -0.0643 
     12 C12       -54.1839  -30.1490   10.0008 C.ar      14 UNK        -0.0930 
     13 C13       -54.4205  -29.8881    8.6452 C.ar      14 UNK        -0.0827 
     14 C14       -53.4286  -30.1899    7.7049 C.ar      14 UNK        -0.1249 
     15 C15       -55.7476  -29.2879    8.1876 C.3       14 UNK         0.0141 
     16 S16       -56.1066  -27.6567    8.9285 S.3       14 UNK        -0.2313 
     17 C17       -54.6099  -26.7010    8.5092 C.3       14 UNK        -0.0915 
     18 CA        -53.6212  -26.6334    9.7100 C.3       13 UNK         0.0968 
     19 C         -52.1725  -26.2190    9.3386 C.2       13 UNK         0.5732 
     20 N         -51.6719  -26.6413    8.1872 N.am      13 UNK        -0.7310 
     21 O         -51.4715  -25.5824   10.1255 O.2       13 UNK        -0.5035 
     22 N         -54.1415  -25.8086   10.8107 N.am      13 UNK        -0.4233 
     23 C         -54.6319  -26.2777   11.9614 C.2       13 UNK         0.4989 
     24 O         -54.7764  -27.4739   12.2285 O.2       13 UNK        -0.4996 
     25 CA        -55.0266  -25.2339   13.0083 C.3       12 UNK         0.0216 
     26 CB        -56.4739  -24.7542   12.8004 C.3       12 UNK        -0.1964 
     27 N         -54.8852  -25.8578   14.3191 N.am      12 UNK        -0.4276 
     28 C         -54.5952  -25.2249   15.4581 C.2       12 UNK         0.5020 
     29 O         -54.5255  -23.9971   15.5495 O.2       12 UNK        -0.5489 
     30 CA        -54.3200  -26.0876   16.7029 C.3       11 UNK         0.0294 
     31 CB        -54.2009  -27.6006   16.4228 C.3       11 UNK        -0.2019 
     32 N         -53.0734  -25.6137   17.2984 N.am      11 UNK        -0.4493 
     33 C         -52.9682  -24.9934   18.4798 C.2       11 UNK         0.4932 
     34 O         -53.8992  -24.8883   19.2809 O.2       11 UNK        -0.5029 
     35 CA        -51.6098  -24.3441   18.8086 C.3       10 UNK         0.0280 
     36 CB        -51.3559  -24.1956   20.3249 C.3       10 UNK        -0.1976 
     37 N         -50.4725  -24.9710   18.1254 N.am      10 UNK        -0.4242 
     38 C         -49.9458  -26.1869   18.3477 C.2       10 UNK         0.5072 
     39 O         -50.3682  -26.9673   19.2020 O.2       10 UNK        -0.5224 
     40 CA        -48.7466  -26.6210   17.4768 C.3       9 UNK         0.0343 
     41 CB        -48.9699  -28.0206   16.8750 C.3       9 UNK        -0.2003 
     42 N         -48.4581  -25.6768   16.3943 N.am      9 UNK        -0.4272 
     43 C         -47.6754  -24.5931   16.4981 C.2       9 UNK         0.4988 
     44 O         -47.0289  -24.3121   17.5072 O.2       9 UNK        -0.5108 
     45 CA        -47.6272  -23.6405   15.2871 C.3       8 UNK         0.0248 
     46 CB        -46.3670  -23.9086   14.4491 C.3       8 UNK        -0.2001 
     47 N         -48.8089  -23.7186   14.4202 N.am      8 UNK        -0.4140 
     48 C         -50.0610  -23.4073   14.7908 C.2       8 UNK         0.5028 
     49 O         -50.3512  -22.9660   15.9025 O.2       8 UNK        -0.5428 
     50 CA        -51.1845  -23.7321   13.7885 C.3       7 UNK         0.0264 
     51 CB        -51.3183  -22.6255   12.7332 C.3       7 UNK        -0.1988 
     52 N         -50.9836  -25.0354   13.1423 N.am      7 UNK        -0.4454 
     53 C         -50.9895  -26.1988   13.8135 C.2       7 UNK         0.5027 
     54 O         -51.2835  -26.2737   15.0070 O.2       7 UNK        -0.5083 
     55 CA        -50.5333  -27.4783   13.0864 C.3       6 UNK         0.0844 
     56 C56       -51.7164  -28.4260   12.7818 C.3       14 UNK        -0.0967 
     57 S57       -51.1536  -30.1323   12.4867 S.3       14 UNK        -0.2604 
     58 C58       -52.6870  -30.9302   11.8994 C.3       14 UNK         0.0134 
     59 N         -49.7587  -27.1539   11.8856 N.am      6 UNK        -0.4116 
     60 C         -48.4232  -27.1854   11.8134 C.2       5 UNK         0.5034 
     61 O         -47.6849  -27.5155   12.7422 O.2       5 UNK        -0.5045 
     62 CA        -47.8018  -26.7576   10.4724 C.3       5 UNK         0.0224 
     63 CB        -47.9438  -27.8998    9.4559 C.3       5 UNK        -0.1978 
     64 N         -48.3570  -25.5215    9.9007 N.am      5 UNK        -0.4737 
     65 C         -48.4315  -24.3396   10.5338 C.2       4 UNK         0.5027 
     66 O         -48.1003  -24.1821   11.7083 O.2       4 UNK        -0.5211 
     67 CA        -48.9723  -23.1278    9.7560 C.3       4 UNK         0.0297 
     68 CB        -48.1964  -21.8385   10.0863 C.3       4 UNK        -0.1993 
     69 N         -48.9656  -23.3351    8.3082 N.am      4 UNK        -0.4486 
     70 C         -50.0072  -23.0964    7.5020 C.2       3 UNK         0.4961 
     71 O         -51.0839  -22.6402    7.8891 O.2       3 UNK        -0.5105 
     72 CA        -49.8358  -23.3956    5.9996 C.3       3 UNK         0.0299 
     73 CB        -49.6860  -22.0825    5.2124 C.3       3 UNK        -0.1972 
     74 N         -48.7394  -24.2990    5.6227 N.am      3 UNK        -0.4305 
     75 C         -48.5703  -25.5540    6.0559 C.2       2 UNK         0.5006 
     76 O         -49.1917  -26.0522    6.9986 O.2       2 UNK        -0.5106 
     77 CA        -47.5309  -26.3986    5.3156 C.3       2 UNK         0.0296 
     78 CB        -46.1396  -26.2889    5.9644 C.3       2 UNK        -0.2002 
     79 N         -48.0144  -27.7735    5.3396 N.am      2 UNK        -0.4032 
     80 C         -47.7299  -28.7339    4.4570 C.2       1 UNK         0.5000 
     81 O         -46.8892  -28.6136    3.5591 O.2       1 UNK        -0.5238 
     82 H82       -47.9073  -33.9141    2.3956 H         1 UNK         0.0889 
     83 H83       -47.0312  -32.5003    1.8057 H         1 UNK         0.0889 
     84 H84       -48.6180  -32.8944    1.1411 H         1 UNK         0.0889 
     85 H85       -47.1421  -30.7290    3.2048 H         1 UNK         0.3028 
     86 H86       -49.5608  -29.7924    4.2888 H         1 UNK         0.0864 
     87 H87       -48.7581  -31.6944    6.0065 H         1 UNK         0.0720 
     88 H88       -47.5891  -30.5177    6.5112 H         1 UNK         0.0720 
     89 H89       -50.7050  -32.0693    7.3452 H         1 UNK         0.0814 
     90 H90       -51.5636  -31.2006    6.0932 H         1 UNK         0.0814 
     91 H91       -51.0402  -31.4076    9.7838 H         1 UNK         0.1469 
     92 H92       -54.9461  -29.9088   10.7301 H         1 UNK         0.1381 
     93 H93       -53.6034  -29.9966    6.6553 H         1 UNK         0.1206 
     94 H94       -56.5535  -29.9753    8.4476 H         1 UNK         0.0813 
     95 H95       -55.7723  -29.1878    7.1014 H         1 UNK         0.0813 
     96 H96       -54.9069  -25.6966    8.2038 H         1 UNK         0.0638 
     97 H97       -54.1591  -27.1619    7.6300 H         1 UNK         0.0638 
     98 H98       -53.4829  -27.6459   10.0764 H         1 UNK         0.0568 
     99 H99       -52.2142  -27.2274    7.5752 H         1 UNK         0.3450 
    100 H100      -50.7260  -26.3917    7.9144 H         1 UNK         0.3450 
    101 H101      -54.0175  -24.8134   10.6932 H         1 UNK         0.2987 
    102 H102      -54.3410  -24.3867   12.9334 H         1 UNK         0.0766 
    103 H103      -56.7554  -24.0091   13.5447 H         1 UNK         0.0798 
    104 H104      -57.1841  -25.5795   12.8674 H         1 UNK         0.0798 
    105 H105      -56.5978  -24.2949   11.8189 H         1 UNK         0.0798 
    106 H106      -54.8953  -26.8705   14.2910 H         1 UNK         0.3198 
    107 H107      -55.1604  -25.9330   17.3826 H         1 UNK         0.0843 
    108 H108      -53.3992  -27.8258   15.7197 H         1 UNK         0.0831 
    109 H109      -55.1296  -28.0085   16.0219 H         1 UNK         0.0831 
    110 H110      -53.9885  -28.1474   17.3417 H         1 UNK         0.0831 
    111 H111      -52.2666  -25.6392   16.6820 H         1 UNK         0.3133 
    112 H112      -51.6676  -23.3354   18.3973 H         1 UNK         0.0566 
    113 H113      -50.3903  -23.7305   20.5228 H         1 UNK         0.0814 
    114 H114      -52.1171  -23.5666   20.7880 H         1 UNK         0.0814 
    115 H115      -51.3785  -25.1574   20.8378 H         1 UNK         0.0814 
    116 H116      -50.0851  -24.4137   17.3711 H         1 UNK         0.3091 
    117 H117      -47.8783  -26.6785   18.1363 H         1 UNK         0.0702 
    118 H118      -48.1507  -28.3082   16.2156 H         1 UNK         0.0785 
    119 H119      -49.8971  -28.0761   16.3052 H         1 UNK         0.0785 
    120 H120      -49.0316  -28.7752   17.6601 H         1 UNK         0.0785 
    121 H121      -48.9753  -25.8130   15.5377 H         1 UNK         0.2998 
    122 H122      -47.5702  -22.6220   15.6764 H         1 UNK         0.0697 
    123 H123      -46.3878  -24.9025   13.9990 H         1 UNK         0.0825 
    124 H124      -45.4661  -23.8434   15.0607 H         1 UNK         0.0825 
    125 H125      -46.2649  -23.1809   13.6437 H         1 UNK         0.0825 
    126 H126      -48.6415  -24.0268   13.4629 H         1 UNK         0.3029 
    127 H127      -52.1220  -23.7805   14.3451 H         1 UNK         0.0897 
    128 H128      -52.0301  -22.8942   11.9524 H         1 UNK         0.0792 
    129 H129      -51.6719  -21.7012   13.1918 H         1 UNK         0.0792 
    130 H130      -50.3623  -22.4005   12.2631 H         1 UNK         0.0792 
    131 H131      -50.7614  -25.0363   12.1546 H         1 UNK         0.3086 
    132 H132      -49.8896  -27.9926   13.8031 H         1 UNK         0.0583 
    133 H133      -52.4287  -28.4548   13.6081 H         1 UNK         0.1020 
    134 H134      -52.2653  -28.0829   11.9089 H         1 UNK         0.1020 
    135 H135      -52.5996  -32.0066   12.0526 H         1 UNK         0.0694 
    136 H136      -53.5245  -30.5982   12.5154 H         1 UNK         0.0694 
    137 H137      -50.2763  -26.8162   11.0809 H         1 UNK         0.2989 
    138 H138      -46.7385  -26.5827   10.6492 H         1 UNK         0.1055 
    139 H139      -47.5375  -28.8329    9.8489 H         1 UNK         0.0806 
    140 H140      -47.4171  -27.6859    8.5286 H         1 UNK         0.0806 
    141 H141      -48.9908  -28.0786    9.2103 H         1 UNK         0.0806 
    142 H142      -48.7138  -25.5852    8.9534 H         1 UNK         0.3061 
    143 H143      -50.0007  -23.0059   10.0980 H         1 UNK         0.0734 
    144 H144      -48.6256  -20.9772    9.5743 H         1 UNK         0.0832 
    145 H145      -48.2216  -21.6206   11.1548 H         1 UNK         0.0832 
    146 H146      -47.1487  -21.9155    9.7941 H         1 UNK         0.0832 
    147 H147      -48.1196  -23.7110    7.9041 H         1 UNK         0.3156 
    148 H148      -50.7612  -23.8769    5.6765 H         1 UNK         0.0589 
    149 H149      -48.7549  -21.5701    5.4582 H         1 UNK         0.0808 
    150 H150      -49.7012  -22.2577    4.1365 H         1 UNK         0.0808 
    151 H151      -50.5036  -21.3951    5.4351 H         1 UNK         0.0808 
    152 H152      -48.1471  -23.9762    4.8706 H         1 UNK         0.3098 
    153 H153      -47.4771  -26.0615    4.2781 H         1 UNK         0.0720 
    154 H154      -45.4116  -26.9150    5.4484 H         1 UNK         0.0791 
    155 H155      -46.1506  -26.5863    7.0120 H         1 UNK         0.0791 
    156 H156      -45.7700  -25.2637    5.9220 H         1 UNK         0.0791 
    157 H157      -48.7206  -27.9485    6.0482 H         1 UNK         0.3028 
@<TRIPOS>BOND
     1    1    2 1    
     2    1   82 1    
     3    1   83 1    
     4    1   84 1    
     5    2    3 2    
     6    2    4 am   BACKBONE|DICT|INTERRES
     7    4    5 1    
     8    4   85 1    
     9    5    6 1    
    10    5   80 1    
    11    5   86 1    
    12    6    7 1    
    13    6   87 1    
    14    6   88 1    
    15    7    8 1    
    16    8    9 1    
    17    8   89 1    
    18    8   90 1    
    19    9   10 ar   
    20    9   14 ar   
    21   10   11 ar   
    22   10   91 1    
    23   11   12 ar   
    24   11   58 1    
    25   12   13 ar   
    26   12   92 1    
    27   13   14 ar   
    28   13   15 1    
    29   14   93 1    
    30   15   16 1    
    31   15   94 1    
    32   15   95 1    
    33   16   17 1    
    34   17   18 1    
    35   17   96 1    
    36   17   97 1    
    37   18   19 1    
    38   18   22 1    
    39   18   98 1    
    40   19   20 am   BACKBONE|DICT|INTERRES
    41   19   21 2    
    42   20   99 1    
    43   20  100 1    
    44   22   23 am   BACKBONE|DICT|INTERRES
    45   22  101 1    
    46   23   24 2    
    47   23   25 1    
    48   25   26 1    
    49   25   27 1    
    50   25  102 1    
    51   26  103 1    
    52   26  104 1    
    53   26  105 1    
    54   27   28 am   BACKBONE|DICT|INTERRES
    55   27  106 1    
    56   28   29 2    
    57   28   30 1    
    58   30   31 1    
    59   30   32 1    
    60   30  107 1    
    61   31  108 1    
    62   31  109 1    
    63   31  110 1    
    64   32   33 am   BACKBONE|DICT|INTERRES
    65   32  111 1    
    66   33   34 2    
    67   33   35 1    
    68   35   36 1    
    69   35   37 1    
    70   35  112 1    
    71   36  113 1    
    72   36  114 1    
    73   36  115 1    
    74   37   38 am   BACKBONE|DICT|INTERRES
    75   37  116 1    
    76   38   39 2    
    77   38   40 1    
    78   40   41 1    
    79   40   42 1    
    80   40  117 1    
    81   41  118 1    
    82   41  119 1    
    83   41  120 1    
    84   42   43 am   BACKBONE|DICT|INTERRES
    85   42  121 1    
    86   43   44 2    
    87   43   45 1    
    88   45   46 1    
    89   45   47 1    
    90   45  122 1    
    91   46  123 1    
    92   46  124 1    
    93   46  125 1    
    94   47   48 am   BACKBONE|DICT|INTERRES
    95   47  126 1    
    96   48   49 2    
    97   48   50 1    
    98   50   51 1    
    99   50   52 1    
   100   50  127 1    
   101   51  128 1    
   102   51  129 1    
   103   51  130 1    
   104   52   53 am   BACKBONE|DICT|INTERRES
   105   52  131 1    
   106   53   54 2    
   107   53   55 1    
   108   55   56 1    
   109   55   59 1    
   110   55  132 1    
   111   56   57 1    
   112   56  133 1    
   113   56  134 1    
   114   57   58 1    
   115   58  135 1    
   116   58  136 1    
   117   59   60 am   BACKBONE|DICT|INTERRES
   118   59  137 1    
   119   60   61 2    
   120   60   62 1    
   121   62   63 1    
   122   62   64 1    
   123   62  138 1    
   124   63  139 1    
   125   63  140 1    
   126   63  141 1    
   127   64   65 am   BACKBONE|DICT|INTERRES
   128   64  142 1    
   129   65   66 2    
   130   65   67 1    
   131   67   68 1    
   132   67   69 1    
   133   67  143 1    
   134   68  144 1    
   135   68  145 1    
   136   68  146 1    
   137   69   70 am   BACKBONE|DICT|INTERRES
   138   69  147 1    
   139   70   71 2    
   140   70   72 1    
   141   72   73 1    
   142   72   74 1    
   143   72  148 1    
   144   73  149 1    
   145   73  150 1    
   146   73  151 1    
   147   74   75 am   BACKBONE|DICT|INTERRES
   148   74  152 1    
   149   75   76 2    
   150   75   77 1    
   151   77   78 1    
   152   77   79 1    
   153   77  153 1    
   154   78  154 1    
   155   78  155 1    
   156   78  156 1    
   157   79   80 am   BACKBONE|DICT|INTERRES
   158   79  157 1    
   159   80   81 2    
@<TRIPOS>SUBSTRUCTURE
     1 UNK         1 GROUP             0       ****    0 ROOT    
