@<TRIPOS>MOLECULE
3R207
157   159    1
SMALL
USER_CHARGES


@<TRIPOS>ATOM
      1 CA        -46.6901  -31.3935    7.9077 C.3       0 UNK        -0.1975 
      2 C         -47.2618  -30.8156    6.6213 C.2       0 UNK         0.4852 
      3 O         -46.6350  -30.9345    5.5682 O.2       0 UNK        -0.5216 
      4 N         -48.4491  -30.1986    6.7030 N.am      1 UNK        -0.4461 
      5 CA        -49.1454  -29.5317    5.5958 C.3       1 UNK         0.0864 
      6 C6        -50.5831  -29.1401    6.0261 C.3       14 UNK        -0.0898 
      7 S7        -51.5842  -28.3701    4.7092 S.3       14 UNK        -0.2598 
      8 C8        -53.2723  -28.6697    5.3210 C.3       14 UNK         0.0286 
      9 C9        -53.5104  -28.0868    6.7093 C.ar      14 UNK        -0.0844 
     10 C10       -53.4702  -26.7040    6.9171 C.ar      14 UNK        -0.0881 
     11 C11       -53.7359  -26.1639    8.1803 C.ar      14 UNK        -0.0643 
     12 C12       -54.0639  -27.0234    9.2347 C.ar      14 UNK        -0.0930 
     13 C13       -54.0892  -28.4073    9.0450 C.ar      14 UNK        -0.0827 
     14 C14       -53.8059  -28.9333    7.7815 C.ar      14 UNK        -0.1249 
     15 C15       -54.4619  -29.3323   10.1924 C.3       14 UNK         0.0141 
     16 S16       -53.1826  -29.3644   11.4871 S.3       14 UNK        -0.2313 
     17 C17       -53.5710  -30.9245   12.3591 C.3       14 UNK        -0.0915 
     18 CA        -55.0623  -31.0955   12.7894 C.3       13 UNK         0.0968 
     19 C         -55.3902  -32.4763   13.4399 C.2       13 UNK         0.5732 
     20 N         -54.6372  -33.5282   13.1441 N.am      13 UNK        -0.7310 
     21 O         -56.3707  -32.6206   14.1689 O.2       13 UNK        -0.5035 
     22 N         -55.5556  -29.9516   13.5719 N.am      13 UNK        -0.4233 
     23 C         -55.2117  -29.6409   14.8269 C.2       13 UNK         0.4989 
     24 O         -54.3950  -30.2698   15.5030 O.2       13 UNK        -0.4996 
     25 CA        -55.8817  -28.3826   15.3983 C.3       12 UNK         0.0216 
     26 CB        -55.8466  -28.3325   16.9372 C.3       12 UNK        -0.1964 
     27 N         -55.2328  -27.1904   14.8527 N.am      12 UNK        -0.4276 
     28 C         -55.5427  -26.6266   13.6753 C.2       12 UNK         0.5020 
     29 O         -56.4228  -27.0754   12.9375 O.2       12 UNK        -0.5489 
     30 CA        -54.7483  -25.3864   13.2078 C.3       11 UNK         0.0294 
     31 CB        -55.6776  -24.2616   12.7089 C.3       11 UNK        -0.2019 
     32 N         -53.7673  -24.8678   14.1668 N.am      11 UNK        -0.4493 
     33 C         -53.9702  -24.3540   15.3892 C.2       11 UNK         0.4932 
     34 O         -55.0824  -24.1505   15.8774 O.2       11 UNK        -0.5029 
     35 CA        -52.6950  -24.0866   16.2193 C.3       10 UNK         0.0280 
     36 CB        -52.9803  -23.9293   17.7273 C.3       10 UNK        -0.1976 
     37 N         -51.6547  -25.1015   15.9910 N.am      10 UNK        -0.4242 
     38 C         -51.7787  -26.4315   16.1363 C.2       10 UNK         0.5072 
     39 O         -52.7833  -26.9669   16.6024 O.2       10 UNK        -0.5224 
     40 CA        -50.6426  -27.3340   15.6182 C.3       9 UNK         0.0343 
     41 CB        -51.1339  -28.1547   14.4129 C.3       9 UNK        -0.2003 
     42 N         -49.4388  -26.5992   15.2262 N.am      9 UNK        -0.4272 
     43 C         -48.5359  -26.1032   16.0824 C.2       9 UNK         0.4988 
     44 O         -48.5796  -26.2745   17.3011 O.2       9 UNK        -0.5108 
     45 CA        -47.4138  -25.2387   15.4817 C.3       8 UNK         0.0248 
     46 CB        -46.2593  -26.1229   14.9843 C.3       8 UNK        -0.2001 
     47 N         -47.8725  -24.3602   14.3986 N.am      8 UNK        -0.4140 
     48 C         -48.7935  -23.3944   14.5406 C.2       8 UNK         0.5028 
     49 O         -49.3444  -23.1270   15.6084 O.2       8 UNK        -0.5428 
     50 CA        -49.2125  -22.6246   13.2780 C.3       7 UNK         0.0264 
     51 CB        -48.1557  -21.5749   12.9002 C.3       7 UNK        -0.1988 
     52 N         -49.4847  -23.4969   12.1332 N.am      7 UNK        -0.4454 
     53 C         -50.4417  -24.4382   12.1000 C.2       7 UNK         0.5027 
     54 O         -51.2100  -24.6653   13.0350 O.2       7 UNK        -0.5083 
     55 CA        -50.5216  -25.3148   10.8313 C.3       6 UNK         0.0844 
     56 C56       -51.1600  -24.5620    9.6358 C.3       14 UNK        -0.0967 
     57 S57       -52.9076  -24.1113    9.9210 S.3       14 UNK        -0.2604 
     58 C58       -53.7148  -24.6507    8.3761 C.3       14 UNK         0.0134 
     59 N         -49.2074  -25.8603   10.4842 N.am      6 UNK        -0.4116 
     60 C         -48.4401  -26.6165   11.2838 C.2       5 UNK         0.5034 
     61 O         -48.7824  -27.0216   12.3941 O.2       5 UNK        -0.5045 
     62 CA        -47.0189  -26.9160   10.7836 C.3       5 UNK         0.0224 
     63 CB        -47.0158  -28.0762    9.7743 C.3       5 UNK        -0.1978 
     64 N         -46.3866  -25.7312   10.1957 N.am      5 UNK        -0.4737 
     65 C         -46.0181  -24.6496   10.8979 C.2       4 UNK         0.5027 
     66 O         -46.1394  -24.5535   12.1178 O.2       4 UNK        -0.5211 
     67 CA        -45.4530  -23.4611   10.1030 C.3       4 UNK         0.0297 
     68 CB        -43.9604  -23.6717    9.8039 C.3       4 UNK        -0.1993 
     69 N         -46.1777  -23.2200    8.8535 N.am      4 UNK        -0.4486 
     70 C         -47.4571  -22.8250    8.7825 C.2       3 UNK         0.4961 
     71 O         -48.1572  -22.5821    9.7643 O.2       3 UNK        -0.5105 
     72 CA        -48.0778  -22.7468    7.3767 C.3       3 UNK         0.0299 
     73 CB        -47.7543  -21.3977    6.7159 C.3       3 UNK        -0.1972 
     74 N         -47.6612  -23.8453    6.4964 N.am      3 UNK        -0.4305 
     75 C         -47.8682  -25.1423    6.7587 C.2       2 UNK         0.5006 
     76 O         -48.4255  -25.5564    7.7799 O.2       2 UNK        -0.5106 
     77 CA        -47.3225  -26.1487    5.7424 C.3       2 UNK         0.0296 
     78 CB        -45.8026  -26.3302    5.9036 C.3       2 UNK        -0.2002 
     79 N         -47.9904  -27.4190    5.9890 N.am      2 UNK        -0.4032 
     80 C         -48.3403  -28.3224    5.0697 C.2       1 UNK         0.5000 
     81 O         -48.0525  -28.2396    3.8734 O.2       1 UNK        -0.5238 
     82 H82       -45.7521  -30.8976    8.1563 H         1 UNK         0.0889 
     83 H83       -46.4910  -32.4578    7.7852 H         1 UNK         0.0889 
     84 H84       -47.3715  -31.2721    8.7495 H         1 UNK         0.0889 
     85 H85       -48.9185  -30.1641    7.5963 H         1 UNK         0.3028 
     86 H86       -49.2218  -30.2513    4.7777 H         1 UNK         0.0864 
     87 H87       -51.1097  -30.0314    6.3718 H         1 UNK         0.0720 
     88 H88       -50.5613  -28.4561    6.8771 H         1 UNK         0.0720 
     89 H89       -53.4657  -29.7436    5.3108 H         1 UNK         0.0814 
     90 H90       -53.9837  -28.2269    4.6226 H         1 UNK         0.0814 
     91 H91       -53.2401  -26.0495    6.0873 H         1 UNK         0.1469 
     92 H92       -54.2993  -26.6177   10.2078 H         1 UNK         0.1381 
     93 H93       -53.8377  -30.0032    7.6270 H         1 UNK         0.1206 
     94 H94       -55.4068  -29.0022   10.6264 H         1 UNK         0.0813 
     95 H95       -54.6239  -30.3451    9.8203 H         1 UNK         0.0813 
     96 H96       -53.2704  -31.7335   11.6921 H         1 UNK         0.0638 
     97 H97       -52.9173  -30.9906   13.2304 H         1 UNK         0.0638 
     98 H98       -55.6704  -31.0991   11.8859 H         1 UNK         0.0568 
     99 H99       -54.8682  -34.4222   13.5485 H         1 UNK         0.3450 
    100 H100      -53.8402  -33.4457   12.5337 H         1 UNK         0.3450 
    101 H101      -56.2056  -29.3367   13.0994 H         1 UNK         0.2987 
    102 H102      -56.9328  -28.3928   15.1009 H         1 UNK         0.0766 
    103 H103      -56.3225  -27.4275   17.3152 H         1 UNK         0.0798 
    104 H104      -54.8295  -28.3625   17.3275 H         1 UNK         0.0798 
    105 H105      -56.3798  -29.1832   17.3631 H         1 UNK         0.0798 
    106 H106      -54.4539  -26.8241   15.3912 H         1 UNK         0.3198 
    107 H107      -54.1570  -25.7244   12.3565 H         1 UNK         0.0843 
    108 H108      -56.3386  -23.9017   13.4976 H         1 UNK         0.0831 
    109 H109      -56.3083  -24.6097   11.8900 H         1 UNK         0.0831 
    110 H110      -55.1051  -23.4132   12.3339 H         1 UNK         0.0831 
    111 H111      -52.7975  -24.9293   13.8535 H         1 UNK         0.3133 
    112 H112      -52.2848  -23.1433   15.8561 H         1 UNK         0.0566 
    113 H113      -52.0647  -23.7297   18.2839 H         1 UNK         0.0814 
    114 H114      -53.6595  -23.0962   17.9121 H         1 UNK         0.0814 
    115 H115      -53.4409  -24.8239   18.1477 H         1 UNK         0.0814 
    116 H116      -50.7934  -24.7466   15.5914 H         1 UNK         0.3091 
    117 H117      -50.3845  -28.0273   16.4212 H         1 UNK         0.0702 
    118 H118      -52.0081  -28.7541   14.6718 H         1 UNK         0.0785 
    119 H119      -51.4161  -27.5128   13.5770 H         1 UNK         0.0785 
    120 H120      -50.3653  -28.8419   14.0590 H         1 UNK         0.0785 
    121 H121      -49.2935  -26.4685   14.2286 H         1 UNK         0.2998 
    122 H122      -47.0307  -24.5987   16.2791 H         1 UNK         0.0697 
    123 H123      -46.5692  -26.7618   14.1569 H         1 UNK         0.0825 
    124 H124      -45.8925  -26.7725   15.7801 H         1 UNK         0.0825 
    125 H125      -45.4169  -25.5205   14.6440 H         1 UNK         0.0825 
    126 H126      -47.4258  -24.4850   13.4920 H         1 UNK         0.3029 
    127 H127      -50.1410  -22.0987   13.5106 H         1 UNK         0.0897 
    128 H128      -47.2106  -22.0367   12.6137 H         1 UNK         0.0792 
    129 H129      -47.9526  -20.9055   13.7372 H         1 UNK         0.0792 
    130 H130      -48.4913  -20.9581   12.0663 H         1 UNK         0.0792 
    131 H131      -48.9191  -23.3395   11.3013 H         1 UNK         0.3086 
    132 H132      -51.1585  -26.1709   11.0659 H         1 UNK         0.0583 
    133 H133      -50.6023  -23.6545    9.4013 H         1 UNK         0.1020 
    134 H134      -51.0990  -25.1853    8.7420 H         1 UNK         0.1020 
    135 H135      -54.7445  -24.2911    8.3807 H         1 UNK         0.0694 
    136 H136      -53.2197  -24.1586    7.5374 H         1 UNK         0.0694 
    137 H137      -48.8445  -25.6129    9.5664 H         1 UNK         0.2989 
    138 H138      -46.4240  -27.2195   11.6481 H         1 UNK         0.1055 
    139 H139      -47.4347  -28.9781   10.2227 H         1 UNK         0.0806 
    140 H140      -46.0037  -28.3177    9.4492 H         1 UNK         0.0806 
    141 H141      -47.6080  -27.8497    8.8892 H         1 UNK         0.0806 
    142 H142      -46.3000  -25.7065    9.1909 H         1 UNK         0.3061 
    143 H143      -45.5530  -22.5694   10.7255 H         1 UNK         0.0734 
    144 H144      -43.5263  -22.7992    9.3152 H         1 UNK         0.0832 
    145 H145      -43.3995  -23.8365   10.7251 H         1 UNK         0.0832 
    146 H146      -43.7916  -24.5367    9.1614 H         1 UNK         0.0832 
    147 H147      -45.6810  -23.3925    7.9919 H         1 UNK         0.3156 
    148 H148      -49.1614  -22.8149    7.4930 H         1 UNK         0.0589 
    149 H149      -46.6852  -21.2785    6.5360 H         1 UNK         0.0808 
    150 H150      -48.2703  -21.2890    5.7618 H         1 UNK         0.0808 
    151 H151      -48.0724  -20.5681    7.3493 H         1 UNK         0.0808 
    152 H152      -47.1932  -23.5889    5.6385 H         1 UNK         0.3098 
    153 H153      -47.5557  -25.7914    4.7370 H         1 UNK         0.0720 
    154 H154      -45.4175  -27.0625    5.1936 H         1 UNK         0.0791 
    155 H155      -45.5398  -26.6713    6.9058 H         1 UNK         0.0791 
    156 H156      -45.2699  -25.3959    5.7226 H         1 UNK         0.0791 
    157 H157      -48.3357  -27.5184    6.9343 H         1 UNK         0.3028 
@<TRIPOS>BOND
     1    1    2 1    
     2    1   82 1    
     3    1   83 1    
     4    1   84 1    
     5    2    3 2    
     6    2    4 am   BACKBONE|DICT|INTERRES
     7    4    5 1    
     8    4   85 1    
     9    5    6 1    
    10    5   80 1    
    11    5   86 1    
    12    6    7 1    
    13    6   87 1    
    14    6   88 1    
    15    7    8 1    
    16    8    9 1    
    17    8   89 1    
    18    8   90 1    
    19    9   10 ar   
    20    9   14 ar   
    21   10   11 ar   
    22   10   91 1    
    23   11   12 ar   
    24   11   58 1    
    25   12   13 ar   
    26   12   92 1    
    27   13   14 ar   
    28   13   15 1    
    29   14   93 1    
    30   15   16 1    
    31   15   94 1    
    32   15   95 1    
    33   16   17 1    
    34   17   18 1    
    35   17   96 1    
    36   17   97 1    
    37   18   19 1    
    38   18   22 1    
    39   18   98 1    
    40   19   20 am   BACKBONE|DICT|INTERRES
    41   19   21 2    
    42   20   99 1    
    43   20  100 1    
    44   22   23 am   BACKBONE|DICT|INTERRES
    45   22  101 1    
    46   23   24 2    
    47   23   25 1    
    48   25   26 1    
    49   25   27 1    
    50   25  102 1    
    51   26  103 1    
    52   26  104 1    
    53   26  105 1    
    54   27   28 am   BACKBONE|DICT|INTERRES
    55   27  106 1    
    56   28   29 2    
    57   28   30 1    
    58   30   31 1    
    59   30   32 1    
    60   30  107 1    
    61   31  108 1    
    62   31  109 1    
    63   31  110 1    
    64   32   33 am   BACKBONE|DICT|INTERRES
    65   32  111 1    
    66   33   34 2    
    67   33   35 1    
    68   35   36 1    
    69   35   37 1    
    70   35  112 1    
    71   36  113 1    
    72   36  114 1    
    73   36  115 1    
    74   37   38 am   BACKBONE|DICT|INTERRES
    75   37  116 1    
    76   38   39 2    
    77   38   40 1    
    78   40   41 1    
    79   40   42 1    
    80   40  117 1    
    81   41  118 1    
    82   41  119 1    
    83   41  120 1    
    84   42   43 am   BACKBONE|DICT|INTERRES
    85   42  121 1    
    86   43   44 2    
    87   43   45 1    
    88   45   46 1    
    89   45   47 1    
    90   45  122 1    
    91   46  123 1    
    92   46  124 1    
    93   46  125 1    
    94   47   48 am   BACKBONE|DICT|INTERRES
    95   47  126 1    
    96   48   49 2    
    97   48   50 1    
    98   50   51 1    
    99   50   52 1    
   100   50  127 1    
   101   51  128 1    
   102   51  129 1    
   103   51  130 1    
   104   52   53 am   BACKBONE|DICT|INTERRES
   105   52  131 1    
   106   53   54 2    
   107   53   55 1    
   108   55   56 1    
   109   55   59 1    
   110   55  132 1    
   111   56   57 1    
   112   56  133 1    
   113   56  134 1    
   114   57   58 1    
   115   58  135 1    
   116   58  136 1    
   117   59   60 am   BACKBONE|DICT|INTERRES
   118   59  137 1    
   119   60   61 2    
   120   60   62 1    
   121   62   63 1    
   122   62   64 1    
   123   62  138 1    
   124   63  139 1    
   125   63  140 1    
   126   63  141 1    
   127   64   65 am   BACKBONE|DICT|INTERRES
   128   64  142 1    
   129   65   66 2    
   130   65   67 1    
   131   67   68 1    
   132   67   69 1    
   133   67  143 1    
   134   68  144 1    
   135   68  145 1    
   136   68  146 1    
   137   69   70 am   BACKBONE|DICT|INTERRES
   138   69  147 1    
   139   70   71 2    
   140   70   72 1    
   141   72   73 1    
   142   72   74 1    
   143   72  148 1    
   144   73  149 1    
   145   73  150 1    
   146   73  151 1    
   147   74   75 am   BACKBONE|DICT|INTERRES
   148   74  152 1    
   149   75   76 2    
   150   75   77 1    
   151   77   78 1    
   152   77   79 1    
   153   77  153 1    
   154   78  154 1    
   155   78  155 1    
   156   78  156 1    
   157   79   80 am   BACKBONE|DICT|INTERRES
   158   79  157 1    
   159   80   81 2    
@<TRIPOS>SUBSTRUCTURE
     1 UNK         1 GROUP             0       ****    0 ROOT    
