@<TRIPOS>MOLECULE
3R207
157   159    1
SMALL
USER_CHARGES


@<TRIPOS>ATOM
      1 CA        -47.0149  -28.1068    7.9129 C.3       0 UNK        -0.1975 
      2 C         -47.7931  -27.5545    6.7266 C.2       0 UNK         0.4852 
      3 O         -47.2560  -26.7569    5.9589 O.2       0 UNK        -0.5216 
      4 N         -49.0516  -27.9847    6.5682 N.am      1 UNK        -0.4461 
      5 CA        -49.9740  -27.5537    5.5087 C.3       1 UNK         0.0864 
      6 C6        -51.1869  -28.5148    5.3856 C.3       14 UNK        -0.0898 
      7 S7        -52.0640  -28.7926    6.9697 S.3       14 UNK        -0.2598 
      8 C8        -51.5643  -30.4937    7.3976 C.3       14 UNK         0.0286 
      9 C9        -51.3247  -30.6695    8.8931 C.ar      14 UNK        -0.0844 
     10 C10       -50.1074  -31.1811    9.3551 C.ar      14 UNK        -0.0881 
     11 C11       -49.8951  -31.3949   10.7209 C.ar      14 UNK        -0.0643 
     12 C12       -50.9095  -31.0836   11.6313 C.ar      14 UNK        -0.0930 
     13 C13       -52.1327  -30.5715   11.1849 C.ar      14 UNK        -0.0827 
     14 C14       -52.3295  -30.3617    9.8158 C.ar      14 UNK        -0.1249 
     15 C15       -53.2270  -30.2231   12.1858 C.3       14 UNK         0.0141 
     16 S16       -54.8324  -30.9796   11.7776 S.3       14 UNK        -0.2313 
     17 C17       -55.9252  -30.1606   12.9897 C.3       14 UNK        -0.0915 
     18 CA        -56.6956  -28.9625   12.3699 C.3       13 UNK         0.0968 
     19 C         -57.8513  -28.4623   13.2857 C.2       13 UNK         0.5732 
     20 N         -58.0042  -27.1660   13.5364 N.am      13 UNK        -0.7310 
     21 O         -58.6515  -29.2660   13.7593 O.2       13 UNK        -0.5035 
     22 N         -55.7738  -27.8862   11.9853 N.am      13 UNK        -0.4233 
     23 C         -55.7220  -27.2950   10.7860 C.2       13 UNK         0.4989 
     24 O         -56.4182  -27.6325    9.8269 O.2       13 UNK        -0.4996 
     25 CA        -54.7145  -26.1364   10.6214 C.3       12 UNK         0.0216 
     26 CB        -55.1711  -25.0937    9.5798 C.3       12 UNK        -0.1964 
     27 N         -54.3382  -25.4735   11.8773 N.am      12 UNK        -0.4276 
     28 C         -55.1390  -24.8796   12.7717 C.2       12 UNK         0.5020 
     29 O         -56.3656  -24.8189   12.6585 O.2       12 UNK        -0.5489 
     30 CA        -54.4443  -24.3160   14.0298 C.3       11 UNK         0.0294 
     31 CB        -55.4522  -23.7743   15.0647 C.3       11 UNK        -0.2019 
     32 N         -53.5248  -25.2615   14.6836 N.am      11 UNK        -0.4493 
     33 C         -53.7840  -26.5234   15.0643 C.2       11 UNK         0.4932 
     34 O         -54.8330  -27.1115   14.7992 O.2       11 UNK        -0.5029 
     35 CA        -52.7056  -27.2674   15.8773 C.3       10 UNK         0.0280 
     36 CB        -52.5765  -28.7346   15.4408 C.3       10 UNK        -0.1976 
     37 N         -51.3831  -26.6438   15.7983 N.am      10 UNK        -0.4242 
     38 C         -50.8691  -25.8014   16.7032 C.2       10 UNK         0.5072 
     39 O         -51.4678  -25.4238   17.7110 O.2       10 UNK        -0.5224 
     40 CA        -49.4501  -25.2717   16.4260 C.3       9 UNK         0.0343 
     41 CB        -48.3911  -26.3003   16.8540 C.3       9 UNK        -0.2003 
     42 N         -49.2281  -24.8949   15.0270 N.am      9 UNK        -0.4272 
     43 C         -49.9075  -23.9374   14.3780 C.2       9 UNK         0.4988 
     44 O         -50.8135  -23.2709   14.8792 O.2       9 UNK        -0.5108 
     45 CA        -49.5296  -23.7080   12.9073 C.3       8 UNK         0.0248 
     46 CB        -48.2157  -22.9170   12.8067 C.3       8 UNK        -0.2001 
     47 N         -49.4433  -24.9710   12.1665 N.am      8 UNK        -0.4140 
     48 C         -50.5084  -25.7460   11.9154 C.2       8 UNK         0.5028 
     49 O         -51.6628  -25.4064   12.1589 O.2       8 UNK        -0.5428 
     50 CA        -50.2643  -27.1470   11.3402 C.3       7 UNK         0.0264 
     51 CB        -50.2500  -27.1272    9.8108 C.3       7 UNK        -0.1988 
     52 N         -49.0344  -27.7523   11.8399 N.am      7 UNK        -0.4454 
     53 C         -48.8830  -28.1866   13.0976 C.2       7 UNK         0.5027 
     54 O         -49.7558  -28.0953   13.9598 O.2       7 UNK        -0.5083 
     55 CA        -47.5200  -28.7937   13.4733 C.3       6 UNK         0.0844 
     56 C56       -47.4895  -30.3208   13.2084 C.3       14 UNK        -0.0967 
     57 S57       -47.2805  -30.7707   11.4440 S.3       14 UNK        -0.2604 
     58 C58       -48.5878  -32.0131   11.1968 C.3       14 UNK         0.0134 
     59 N         -46.3902  -28.1081   12.8444 N.am      6 UNK        -0.4116 
     60 C         -46.0822  -26.8089   12.9470 C.2       5 UNK         0.5034 
     61 O         -46.7140  -26.0063   13.6387 O.2       5 UNK        -0.5045 
     62 CA        -44.8623  -26.3263   12.1313 C.3       5 UNK         0.0224 
     63 CB        -44.2413  -27.4175   11.2267 C.3       5 UNK        -0.1978 
     64 N         -45.1100  -25.1270   11.3201 N.am      5 UNK        -0.4737 
     65 C         -46.1382  -24.8862   10.4955 C.2       4 UNK         0.5027 
     66 O         -47.1495  -25.5871   10.4022 O.2       4 UNK        -0.5211 
     67 CA        -45.9821  -23.6665    9.5834 C.3       4 UNK         0.0297 
     68 CB        -45.2748  -24.0615    8.2742 C.3       4 UNK        -0.1993 
     69 N         -47.2989  -23.1132    9.2900 N.am      4 UNK        -0.4486 
     70 C         -47.5420  -21.8445    8.9385 C.2       3 UNK         0.4961 
     71 O         -46.6527  -21.0059    8.7818 O.2       3 UNK        -0.5105 
     72 CA        -49.0180  -21.4197    8.7739 C.3       3 UNK         0.0299 
     73 CB        -49.1951  -20.2954    7.7303 C.3       3 UNK        -0.1972 
     74 N         -49.9536  -22.5232    8.5127 N.am      3 UNK        -0.4305 
     75 C         -49.9616  -23.3499    7.4562 C.2       2 UNK         0.5006 
     76 O         -49.1425  -23.3059    6.5376 O.2       2 UNK        -0.5106 
     77 CA        -51.0959  -24.3871    7.4499 C.3       2 UNK         0.0296 
     78 CB        -52.3552  -23.8538    6.7382 C.3       2 UNK        -0.2002 
     79 N         -50.6728  -25.6917    6.9292 N.am      2 UNK        -0.4032 
     80 C         -50.4338  -26.0866    5.6692 C.2       1 UNK         0.5000 
     81 O         -50.5755  -25.3849    4.6658 O.2       1 UNK        -0.5238 
     82 H82       -47.6522  -28.6612    8.6017 H         1 UNK         0.0889 
     83 H83       -46.5487  -27.2926    8.4653 H         1 UNK         0.0889 
     84 H84       -46.2269  -28.7744    7.5660 H         1 UNK         0.0889 
     85 H85       -49.4333  -28.6585    7.2159 H         1 UNK         0.3028 
     86 H86       -49.4249  -27.6007    4.5655 H         1 UNK         0.0864 
     87 H87       -50.8544  -29.4708    4.9792 H         1 UNK         0.0720 
     88 H88       -51.9060  -28.1346    4.6572 H         1 UNK         0.0720 
     89 H89       -50.6679  -30.7712    6.8417 H         1 UNK         0.0814 
     90 H90       -52.3468  -31.1829    7.0773 H         1 UNK         0.0814 
     91 H91       -49.3260  -31.4357    8.6521 H         1 UNK         0.1469 
     92 H92       -50.7477  -31.2484   12.6876 H         1 UNK         0.1381 
     93 H93       -53.2730  -29.9656    9.4652 H         1 UNK         0.1206 
     94 H94       -53.3265  -29.1386   12.2298 H         1 UNK         0.0813 
     95 H95       -52.9487  -30.5629   13.1834 H         1 UNK         0.0813 
     96 H96       -56.6203  -30.9215   13.3485 H         1 UNK         0.0638 
     97 H97       -55.3487  -29.8427   13.8600 H         1 UNK         0.0638 
     98 H98       -57.2024  -29.3372   11.4792 H         1 UNK         0.0568 
     99 H99       -58.7651  -26.8700   14.1255 H         1 UNK         0.3450 
    100 H100      -57.3663  -26.4741   13.1561 H         1 UNK         0.3450 
    101 H101      -55.2303  -27.5004   12.7488 H         1 UNK         0.2987 
    102 H102      -53.7995  -26.5961   10.2445 H         1 UNK         0.0766 
    103 H103      -56.1116  -24.6231    9.8683 H         1 UNK         0.0798 
    104 H104      -54.4265  -24.3077    9.4537 H         1 UNK         0.0798 
    105 H105      -55.3213  -25.5526    8.6018 H         1 UNK         0.0798 
    106 H106      -53.3319  -25.4645   12.0743 H         1 UNK         0.3198 
    107 H107      -53.8325  -23.4786   13.6901 H         1 UNK         0.0843 
    108 H108      -56.0880  -23.0036   14.6272 H         1 UNK         0.0831 
    109 H109      -54.9431  -23.3270   15.9183 H         1 UNK         0.0831 
    110 H110      -56.1062  -24.5631   15.4390 H         1 UNK         0.0831 
    111 H111      -52.6080  -24.8901   14.8982 H         1 UNK         0.3133 
    112 H112      -53.0482  -27.2664   16.9138 H         1 UNK         0.0566 
    113 H113      -51.8583  -29.2706   16.0613 H         1 UNK         0.0814 
    114 H114      -53.5270  -29.2639   15.5167 H         1 UNK         0.0814 
    115 H115      -52.2364  -28.8001   14.4095 H         1 UNK         0.0814 
    116 H116      -50.7932  -26.9477   15.0258 H         1 UNK         0.3091 
    117 H117      -49.3114  -24.3725   17.0298 H         1 UNK         0.0702 
    118 H118      -47.3816  -25.9121   16.7163 H         1 UNK         0.0785 
    119 H119      -48.4737  -27.2261   16.2845 H         1 UNK         0.0785 
    120 H120      -48.5001  -26.5558   17.9089 H         1 UNK         0.0785 
    121 H121      -48.4806  -25.3742   14.5349 H         1 UNK         0.2998 
    122 H122      -50.3188  -23.1029   12.4555 H         1 UNK         0.0697 
    123 H123      -47.3554  -23.5026   13.1300 H         1 UNK         0.0825 
    124 H124      -48.2508  -22.0224   13.4302 H         1 UNK         0.0825 
    125 H125      -48.0337  -22.5813   11.7899 H         1 UNK         0.0825 
    126 H126      -48.5219  -25.3111   11.9096 H         1 UNK         0.3029 
    127 H127      -51.0972  -27.7795   11.6559 H         1 UNK         0.0897 
    128 H128      -49.4812  -26.4584    9.4231 H         1 UNK         0.0792 
    129 H129      -51.2196  -26.8016    9.4337 H         1 UNK         0.0792 
    130 H130      -50.0689  -28.1247    9.4128 H         1 UNK         0.0792 
    131 H131      -48.2527  -27.8136   11.2030 H         1 UNK         0.3086 
    132 H132      -47.4067  -28.6477   14.5493 H         1 UNK         0.0583 
    133 H133      -46.6539  -30.7604   13.7553 H         1 UNK         0.1020 
    134 H134      -48.3804  -30.7984   13.6210 H         1 UNK         0.1020 
    135 H135      -48.2394  -32.7318   10.4534 H         1 UNK         0.0694 
    136 H136      -48.7415  -32.5879   12.1113 H         1 UNK         0.0694 
    137 H137      -45.8248  -28.6831   12.2370 H         1 UNK         0.2989 
    138 H138      -44.1121  -26.0456   12.8724 H         1 UNK         0.1055 
    139 H139      -43.9083  -28.2810   11.8044 H         1 UNK         0.0806 
    140 H140      -43.3623  -27.0374   10.7057 H         1 UNK         0.0806 
    141 H141      -44.9424  -27.7666   10.4670 H         1 UNK         0.0806 
    142 H142      -44.3643  -24.4449   11.3406 H         1 UNK         0.3061 
    143 H143      -45.3874  -22.9154   10.1082 H         1 UNK         0.0734 
    144 H144      -45.1094  -23.1949    7.6341 H         1 UNK         0.0832 
    145 H145      -44.2997  -24.5087    8.4717 H         1 UNK         0.0832 
    146 H146      -45.8595  -24.7873    7.7070 H         1 UNK         0.0832 
    147 H147      -48.0656  -23.7581    9.4274 H         1 UNK         0.3156 
    148 H148      -49.3107  -21.0099    9.7417 H         1 UNK         0.0589 
    149 H149      -48.8557  -20.6049    6.7413 H         1 UNK         0.0808 
    150 H150      -50.2383  -19.9909    7.6470 H         1 UNK         0.0808 
    151 H151      -48.6233  -19.4085    8.0059 H         1 UNK         0.0808 
    152 H152      -50.6760  -22.6412    9.2101 H         1 UNK         0.3098 
    153 H153      -51.3734  -24.5741    8.4884 H         1 UNK         0.0720 
    154 H154      -53.1526  -24.5972    6.7316 H         1 UNK         0.0791 
    155 H155      -52.1513  -23.5688    5.7057 H         1 UNK         0.0791 
    156 H156      -52.7419  -22.9681    7.2437 H         1 UNK         0.0791 
    157 H157      -50.5090  -26.3936    7.6350 H         1 UNK         0.3028 
@<TRIPOS>BOND
     1    1    2 1    
     2    1   82 1    
     3    1   83 1    
     4    1   84 1    
     5    2    3 2    
     6    2    4 am   BACKBONE|DICT|INTERRES
     7    4    5 1    
     8    4   85 1    
     9    5    6 1    
    10    5   80 1    
    11    5   86 1    
    12    6    7 1    
    13    6   87 1    
    14    6   88 1    
    15    7    8 1    
    16    8    9 1    
    17    8   89 1    
    18    8   90 1    
    19    9   10 ar   
    20    9   14 ar   
    21   10   11 ar   
    22   10   91 1    
    23   11   12 ar   
    24   11   58 1    
    25   12   13 ar   
    26   12   92 1    
    27   13   14 ar   
    28   13   15 1    
    29   14   93 1    
    30   15   16 1    
    31   15   94 1    
    32   15   95 1    
    33   16   17 1    
    34   17   18 1    
    35   17   96 1    
    36   17   97 1    
    37   18   19 1    
    38   18   22 1    
    39   18   98 1    
    40   19   20 am   BACKBONE|DICT|INTERRES
    41   19   21 2    
    42   20   99 1    
    43   20  100 1    
    44   22   23 am   BACKBONE|DICT|INTERRES
    45   22  101 1    
    46   23   24 2    
    47   23   25 1    
    48   25   26 1    
    49   25   27 1    
    50   25  102 1    
    51   26  103 1    
    52   26  104 1    
    53   26  105 1    
    54   27   28 am   BACKBONE|DICT|INTERRES
    55   27  106 1    
    56   28   29 2    
    57   28   30 1    
    58   30   31 1    
    59   30   32 1    
    60   30  107 1    
    61   31  108 1    
    62   31  109 1    
    63   31  110 1    
    64   32   33 am   BACKBONE|DICT|INTERRES
    65   32  111 1    
    66   33   34 2    
    67   33   35 1    
    68   35   36 1    
    69   35   37 1    
    70   35  112 1    
    71   36  113 1    
    72   36  114 1    
    73   36  115 1    
    74   37   38 am   BACKBONE|DICT|INTERRES
    75   37  116 1    
    76   38   39 2    
    77   38   40 1    
    78   40   41 1    
    79   40   42 1    
    80   40  117 1    
    81   41  118 1    
    82   41  119 1    
    83   41  120 1    
    84   42   43 am   BACKBONE|DICT|INTERRES
    85   42  121 1    
    86   43   44 2    
    87   43   45 1    
    88   45   46 1    
    89   45   47 1    
    90   45  122 1    
    91   46  123 1    
    92   46  124 1    
    93   46  125 1    
    94   47   48 am   BACKBONE|DICT|INTERRES
    95   47  126 1    
    96   48   49 2    
    97   48   50 1    
    98   50   51 1    
    99   50   52 1    
   100   50  127 1    
   101   51  128 1    
   102   51  129 1    
   103   51  130 1    
   104   52   53 am   BACKBONE|DICT|INTERRES
   105   52  131 1    
   106   53   54 2    
   107   53   55 1    
   108   55   56 1    
   109   55   59 1    
   110   55  132 1    
   111   56   57 1    
   112   56  133 1    
   113   56  134 1    
   114   57   58 1    
   115   58  135 1    
   116   58  136 1    
   117   59   60 am   BACKBONE|DICT|INTERRES
   118   59  137 1    
   119   60   61 2    
   120   60   62 1    
   121   62   63 1    
   122   62   64 1    
   123   62  138 1    
   124   63  139 1    
   125   63  140 1    
   126   63  141 1    
   127   64   65 am   BACKBONE|DICT|INTERRES
   128   64  142 1    
   129   65   66 2    
   130   65   67 1    
   131   67   68 1    
   132   67   69 1    
   133   67  143 1    
   134   68  144 1    
   135   68  145 1    
   136   68  146 1    
   137   69   70 am   BACKBONE|DICT|INTERRES
   138   69  147 1    
   139   70   71 2    
   140   70   72 1    
   141   72   73 1    
   142   72   74 1    
   143   72  148 1    
   144   73  149 1    
   145   73  150 1    
   146   73  151 1    
   147   74   75 am   BACKBONE|DICT|INTERRES
   148   74  152 1    
   149   75   76 2    
   150   75   77 1    
   151   77   78 1    
   152   77   79 1    
   153   77  153 1    
   154   78  154 1    
   155   78  155 1    
   156   78  156 1    
   157   79   80 am   BACKBONE|DICT|INTERRES
   158   79  157 1    
   159   80   81 2    
@<TRIPOS>SUBSTRUCTURE
     1 UNK         1 GROUP             0       ****    0 ROOT    
