@<TRIPOS>MOLECULE
3R207
157   159    1
SMALL
USER_CHARGES


@<TRIPOS>ATOM
      1 CA        -46.3490  -30.2254    2.2244 C.3       0 UNK        -0.1975 
      2 C         -46.7848  -29.5159    3.4977 C.2       0 UNK         0.4852 
      3 O         -45.9571  -28.8790    4.1517 O.2       0 UNK        -0.5216 
      4 N         -48.0758  -29.6219    3.8463 N.am      1 UNK        -0.4461 
      5 CA        -48.7461  -29.0330    5.0149 C.3       1 UNK         0.0864 
      6 C6        -48.1746  -29.5070    6.3812 C.3       14 UNK        -0.0898 
      7 S7        -48.6375  -31.2332    6.7491 S.3       14 UNK        -0.2598 
      8 C8        -49.4002  -31.0802    8.4010 C.3       14 UNK         0.0286 
      9 C9        -50.8954  -30.7722    8.3639 C.ar      14 UNK        -0.0844 
     10 C10       -51.3803  -29.6219    7.7327 C.ar      14 UNK        -0.0881 
     11 C11       -52.7366  -29.2957    7.7870 C.ar      14 UNK        -0.0643 
     12 C12       -53.6257  -30.1506    8.4400 C.ar      14 UNK        -0.0930 
     13 C13       -53.1594  -31.2976    9.0861 C.ar      14 UNK        -0.0827 
     14 C14       -51.7952  -31.6058    9.0387 C.ar      14 UNK        -0.1249 
     15 C15       -54.1232  -32.1885    9.8570 C.3       14 UNK         0.0141 
     16 S16       -54.5432  -31.4835   11.4876 S.3       14 UNK        -0.2313 
     17 C17       -55.9290  -30.3620   11.0867 C.3       14 UNK        -0.0915 
     18 CA        -55.5936  -28.8599   11.2944 C.3       13 UNK         0.0968 
     19 C         -56.7493  -27.9765   10.7496 C.2       13 UNK         0.5732 
     20 N         -56.5430  -27.2908    9.6338 N.am      13 UNK        -0.7310 
     21 O         -57.8438  -27.9484   11.3098 O.2       13 UNK        -0.5035 
     22 N         -55.2784  -28.5780   12.7028 N.am      13 UNK        -0.4233 
     23 C         -54.9087  -27.3901   13.2003 C.2       13 UNK         0.4989 
     24 O         -54.8127  -26.3604   12.5269 O.2       13 UNK        -0.4996 
     25 CA        -54.5770  -27.3704   14.7079 C.3       12 UNK         0.0216 
     26 CB        -53.4367  -28.3482   15.0517 C.3       12 UNK        -0.1964 
     27 N         -54.1911  -26.0356   15.1694 N.am      12 UNK        -0.4276 
     28 C         -55.0343  -25.0167   15.3734 C.2       12 UNK         0.5020 
     29 O         -56.2620  -25.1173   15.3205 O.2       12 UNK        -0.5489 
     30 CA        -54.3818  -23.6803   15.7509 C.3       11 UNK         0.0294 
     31 CB        -55.3915  -22.5279   15.9181 C.3       11 UNK        -0.2019 
     32 N         -53.6316  -23.8674   16.9888 N.am      11 UNK        -0.4493 
     33 C         -52.4597  -23.2949   17.2807 C.2       11 UNK         0.4932 
     34 O         -51.8856  -22.4871   16.5503 O.2       11 UNK        -0.5029 
     35 CA        -51.8087  -23.6899   18.6111 C.3       10 UNK         0.0280 
     36 CB        -52.7762  -24.3288   19.6334 C.3       10 UNK        -0.1976 
     37 N         -50.6992  -24.5984   18.3351 N.am      10 UNK        -0.4242 
     38 C         -49.6072  -24.7194   19.1008 C.2       10 UNK         0.5072 
     39 O         -49.4105  -24.0438   20.1128 O.2       10 UNK        -0.5224 
     40 CA        -48.5602  -25.7827   18.7142 C.3       9 UNK         0.0343 
     41 CB        -48.5560  -26.9282   19.7413 C.3       9 UNK        -0.2003 
     42 N         -48.7387  -26.3556   17.3780 N.am      9 UNK        -0.4272 
     43 C         -48.4376  -25.7370   16.2294 C.2       9 UNK         0.4988 
     44 O         -47.9952  -24.5885   16.1705 O.2       9 UNK        -0.5108 
     45 CA        -48.6406  -26.5331   14.9256 C.3       8 UNK         0.0248 
     46 CB        -49.1876  -27.9672   15.1194 C.3       8 UNK        -0.2001 
     47 N         -49.4650  -25.7962   13.9679 N.am      8 UNK        -0.4140 
     48 C         -50.7341  -25.3972   14.1358 C.2       8 UNK         0.5028 
     49 O         -51.3920  -25.5869   15.1622 O.2       8 UNK        -0.5428 
     50 CA        -51.3977  -24.6922   12.9401 C.3       7 UNK         0.0264 
     51 CB        -51.0603  -23.1936   12.9412 C.3       7 UNK        -0.1988 
     52 N         -51.0390  -25.2739   11.6425 N.am      7 UNK        -0.4454 
     53 C         -51.3353  -26.5281   11.2634 C.2       7 UNK         0.5027 
     54 O         -51.9182  -27.3427   11.9765 O.2       7 UNK        -0.5083 
     55 CA        -50.8479  -26.9725    9.8718 C.3       6 UNK         0.0844 
     56 C56       -51.5694  -26.2471    8.7042 C.3       14 UNK        -0.0967 
     57 S57       -53.3244  -26.7055    8.4962 S.3       14 UNK        -0.2604 
     58 C58       -53.2344  -27.9855    7.2025 C.3       14 UNK         0.0134 
     59 N         -49.3972  -26.8406    9.7597 N.am      6 UNK        -0.4116 
     60 C         -48.4825  -27.4906   10.4914 C.2       5 UNK         0.5034 
     61 O         -48.7402  -28.3887   11.2916 O.2       5 UNK        -0.5045 
     62 CA        -47.0231  -27.0410   10.3124 C.3       5 UNK         0.0224 
     63 CB        -46.3368  -27.8253    9.1820 C.3       5 UNK        -0.1978 
     64 N         -46.9098  -25.6033   10.0484 N.am      5 UNK        -0.4737 
     65 C         -47.1375  -24.6463   10.9581 C.2       4 UNK         0.5027 
     66 O         -47.4310  -24.8744   12.1306 O.2       4 UNK        -0.5211 
     67 CA        -47.0568  -23.1914   10.4661 C.3       4 UNK         0.0297 
     68 CB        -45.5946  -22.7245   10.3890 C.3       4 UNK        -0.1993 
     69 N         -47.7080  -22.9938    9.1679 N.am      4 UNK        -0.4486 
     70 C         -49.0273  -23.1104    8.9632 C.2       3 UNK         0.4961 
     71 O         -49.8376  -23.3795    9.8500 O.2       3 UNK        -0.5105 
     72 CA        -49.5282  -22.9410    7.5172 C.3       3 UNK         0.0299 
     73 CB        -49.7107  -21.4514    7.1856 C.3       3 UNK        -0.1972 
     74 N         -48.6983  -23.5777    6.4842 N.am      3 UNK        -0.4305 
     75 C         -48.2976  -24.8569    6.4839 C.2       2 UNK         0.5006 
     76 O         -48.4533  -25.6237    7.4353 O.2       2 UNK        -0.5106 
     77 CA        -47.5753  -25.3588    5.2208 C.3       2 UNK         0.0296 
     78 CB        -46.0845  -24.9884    5.2799 C.3       2 UNK        -0.2002 
     79 N         -47.6930  -26.8121    5.0639 N.am      2 UNK        -0.4032 
     80 C         -48.8382  -27.4960    4.9342 C.2       1 UNK         0.5000 
     81 O         -49.9403  -26.9676    4.7732 O.2       1 UNK        -0.5238 
     82 H82       -45.5688  -30.9519    2.4496 H         1 UNK         0.0889 
     83 H83       -45.9484  -29.5045    1.5122 H         1 UNK         0.0889 
     84 H84       -47.1747  -30.7521    1.7463 H         1 UNK         0.0889 
     85 H85       -48.6891  -30.1517    3.2423 H         1 UNK         0.3028 
     86 H86       -49.7784  -29.3834    4.9570 H         1 UNK         0.0864 
     87 H87       -47.0873  -29.4330    6.4083 H         1 UNK         0.0720 
     88 H88       -48.5195  -28.8652    7.1928 H         1 UNK         0.0720 
     89 H89       -48.8866  -30.3157    8.9855 H         1 UNK         0.0814 
     90 H90       -49.2268  -32.0190    8.9290 H         1 UNK         0.0814 
     91 H91       -50.7040  -28.9417    7.2414 H         1 UNK         0.1469 
     92 H92       -54.6749  -29.8967    8.4795 H         1 UNK         0.1381 
     93 H93       -51.4308  -32.4854    9.5518 H         1 UNK         0.1206 
     94 H94       -55.0272  -32.3649    9.2724 H         1 UNK         0.0813 
     95 H95       -53.6754  -33.1709   10.0141 H         1 UNK         0.0813 
     96 H96       -56.2502  -30.5447   10.0603 H         1 UNK         0.0638 
     97 H97       -56.7777  -30.6473   11.7113 H         1 UNK         0.0638 
     98 H98       -54.6911  -28.6299   10.7246 H         1 UNK         0.0568 
     99 H99       -55.6328  -27.2698    9.1979 H         1 UNK         0.3450 
    100 H100      -57.2901  -26.7261    9.2622 H         1 UNK         0.3450 
    101 H101      -55.3340  -29.3705   13.3236 H         1 UNK         0.2987 
    102 H102      -55.4737  -27.6775   15.2504 H         1 UNK         0.0766 
    103 H103      -53.1864  -28.3085   16.1120 H         1 UNK         0.0798 
    104 H104      -52.5308  -28.1198   14.4887 H         1 UNK         0.0798 
    105 H105      -53.7077  -29.3798   14.8261 H         1 UNK         0.0798 
    106 H106      -53.1883  -25.8550   15.2244 H         1 UNK         0.3198 
    107 H107      -53.6984  -23.4239   14.9381 H         1 UNK         0.0843 
    108 H108      -56.0981  -22.7249   16.7252 H         1 UNK         0.0831 
    109 H109      -55.9691  -22.3802   15.0048 H         1 UNK         0.0831 
    110 H110      -54.8858  -21.5874   16.1372 H         1 UNK         0.0831 
    111 H111      -54.0167  -24.5397   17.6382 H         1 UNK         0.3133 
    112 H112      -51.4197  -22.7655   19.0435 H         1 UNK         0.0566 
    113 H113      -52.2899  -24.4581   20.6006 H         1 UNK         0.0814 
    114 H114      -53.6490  -23.6963   19.8020 H         1 UNK         0.0814 
    115 H115      -53.1262  -25.3106   19.3125 H         1 UNK         0.0814 
    116 H116      -50.7627  -25.1315   17.4754 H         1 UNK         0.3091 
    117 H117      -47.5833  -25.2954   18.7475 H         1 UNK         0.0702 
    118 H118      -47.7682  -27.6511   19.5279 H         1 UNK         0.0785 
    119 H119      -48.3794  -26.5504   20.7494 H         1 UNK         0.0785 
    120 H120      -49.5079  -27.4608   19.7558 H         1 UNK         0.0785 
    121 H121      -49.1089  -27.2940   17.3328 H         1 UNK         0.2998 
    122 H122      -47.6542  -26.6180   14.4674 H         1 UNK         0.0697 
    123 H123      -50.1686  -27.9767   15.5958 H         1 UNK         0.0825 
    124 H124      -48.5121  -28.5728   15.7248 H         1 UNK         0.0825 
    125 H125      -49.2900  -28.4736   14.1589 H         1 UNK         0.0825 
    126 H126      -48.9764  -25.5097   13.1237 H         1 UNK         0.3029 
    127 H127      -52.4781  -24.8000   13.0544 H         1 UNK         0.0897 
    128 H128      -49.9941  -23.0217   12.7862 H         1 UNK         0.0792 
    129 H129      -51.3315  -22.7318   13.8912 H         1 UNK         0.0792 
    130 H130      -51.6014  -22.6648   12.1565 H         1 UNK         0.0792 
    131 H131      -50.5488  -24.6621   10.9919 H         1 UNK         0.3086 
    132 H132      -51.0636  -28.0380    9.8012 H         1 UNK         0.0583 
    133 H133      -51.5201  -25.1659    8.8330 H         1 UNK         0.1020 
    134 H134      -51.0516  -26.4471    7.7646 H         1 UNK         0.1020 
    135 H135      -54.2280  -28.1277    6.7748 H         1 UNK         0.0694 
    136 H136      -52.5942  -27.6518    6.3840 H         1 UNK         0.0694 
    137 H137      -49.0565  -26.1830    9.0617 H         1 UNK         0.2989 
    138 H138      -46.5008  -27.2603   11.2467 H         1 UNK         0.1055 
    139 H139      -46.4549  -28.9010    9.3208 H         1 UNK         0.0806 
    140 H140      -45.2669  -27.6188    9.1532 H         1 UNK         0.0806 
    141 H141      -46.7492  -27.5727    8.2055 H         1 UNK         0.0806 
    142 H142      -46.7508  -25.3285    9.0892 H         1 UNK         0.3061 
    143 H143      -47.5740  -22.5675   11.1986 H         1 UNK         0.0734 
    144 H144      -45.5284  -21.6684   10.1269 H         1 UNK         0.0832 
    145 H145      -45.0959  -22.8490   11.3513 H         1 UNK         0.0832 
    146 H146      -45.0244  -23.2909    9.6516 H         1 UNK         0.0832 
    147 H147      -47.1162  -22.7785    8.3788 H         1 UNK         0.3156 
    148 H148      -50.5099  -23.4150    7.4624 H         1 UNK         0.0589 
    149 H149      -48.7576  -20.9216    7.1620 H         1 UNK         0.0808 
    150 H150      -50.1953  -21.3153    6.2185 H         1 UNK         0.0808 
    151 H151      -50.3385  -20.9595    7.9303 H         1 UNK         0.0808 
    152 H152      -48.5002  -23.0175    5.6673 H         1 UNK         0.3098 
    153 H153      -48.0302  -24.8884    4.3469 H         1 UNK         0.0720 
    154 H154      -45.5599  -25.3138    4.3812 H         1 UNK         0.0791 
    155 H155      -45.5904  -25.4450    6.1389 H         1 UNK         0.0791 
    156 H156      -45.9476  -23.9092    5.3593 H         1 UNK         0.0791 
    157 H157      -46.8361  -27.3545    5.1019 H         1 UNK         0.3028 
@<TRIPOS>BOND
     1    1    2 1    
     2    1   82 1    
     3    1   83 1    
     4    1   84 1    
     5    2    3 2    
     6    2    4 am   BACKBONE|DICT|INTERRES
     7    4    5 1    
     8    4   85 1    
     9    5    6 1    
    10    5   80 1    
    11    5   86 1    
    12    6    7 1    
    13    6   87 1    
    14    6   88 1    
    15    7    8 1    
    16    8    9 1    
    17    8   89 1    
    18    8   90 1    
    19    9   10 ar   
    20    9   14 ar   
    21   10   11 ar   
    22   10   91 1    
    23   11   12 ar   
    24   11   58 1    
    25   12   13 ar   
    26   12   92 1    
    27   13   14 ar   
    28   13   15 1    
    29   14   93 1    
    30   15   16 1    
    31   15   94 1    
    32   15   95 1    
    33   16   17 1    
    34   17   18 1    
    35   17   96 1    
    36   17   97 1    
    37   18   19 1    
    38   18   22 1    
    39   18   98 1    
    40   19   20 am   BACKBONE|DICT|INTERRES
    41   19   21 2    
    42   20   99 1    
    43   20  100 1    
    44   22   23 am   BACKBONE|DICT|INTERRES
    45   22  101 1    
    46   23   24 2    
    47   23   25 1    
    48   25   26 1    
    49   25   27 1    
    50   25  102 1    
    51   26  103 1    
    52   26  104 1    
    53   26  105 1    
    54   27   28 am   BACKBONE|DICT|INTERRES
    55   27  106 1    
    56   28   29 2    
    57   28   30 1    
    58   30   31 1    
    59   30   32 1    
    60   30  107 1    
    61   31  108 1    
    62   31  109 1    
    63   31  110 1    
    64   32   33 am   BACKBONE|DICT|INTERRES
    65   32  111 1    
    66   33   34 2    
    67   33   35 1    
    68   35   36 1    
    69   35   37 1    
    70   35  112 1    
    71   36  113 1    
    72   36  114 1    
    73   36  115 1    
    74   37   38 am   BACKBONE|DICT|INTERRES
    75   37  116 1    
    76   38   39 2    
    77   38   40 1    
    78   40   41 1    
    79   40   42 1    
    80   40  117 1    
    81   41  118 1    
    82   41  119 1    
    83   41  120 1    
    84   42   43 am   BACKBONE|DICT|INTERRES
    85   42  121 1    
    86   43   44 2    
    87   43   45 1    
    88   45   46 1    
    89   45   47 1    
    90   45  122 1    
    91   46  123 1    
    92   46  124 1    
    93   46  125 1    
    94   47   48 am   BACKBONE|DICT|INTERRES
    95   47  126 1    
    96   48   49 2    
    97   48   50 1    
    98   50   51 1    
    99   50   52 1    
   100   50  127 1    
   101   51  128 1    
   102   51  129 1    
   103   51  130 1    
   104   52   53 am   BACKBONE|DICT|INTERRES
   105   52  131 1    
   106   53   54 2    
   107   53   55 1    
   108   55   56 1    
   109   55   59 1    
   110   55  132 1    
   111   56   57 1    
   112   56  133 1    
   113   56  134 1    
   114   57   58 1    
   115   58  135 1    
   116   58  136 1    
   117   59   60 am   BACKBONE|DICT|INTERRES
   118   59  137 1    
   119   60   61 2    
   120   60   62 1    
   121   62   63 1    
   122   62   64 1    
   123   62  138 1    
   124   63  139 1    
   125   63  140 1    
   126   63  141 1    
   127   64   65 am   BACKBONE|DICT|INTERRES
   128   64  142 1    
   129   65   66 2    
   130   65   67 1    
   131   67   68 1    
   132   67   69 1    
   133   67  143 1    
   134   68  144 1    
   135   68  145 1    
   136   68  146 1    
   137   69   70 am   BACKBONE|DICT|INTERRES
   138   69  147 1    
   139   70   71 2    
   140   70   72 1    
   141   72   73 1    
   142   72   74 1    
   143   72  148 1    
   144   73  149 1    
   145   73  150 1    
   146   73  151 1    
   147   74   75 am   BACKBONE|DICT|INTERRES
   148   74  152 1    
   149   75   76 2    
   150   75   77 1    
   151   77   78 1    
   152   77   79 1    
   153   77  153 1    
   154   78  154 1    
   155   78  155 1    
   156   78  156 1    
   157   79   80 am   BACKBONE|DICT|INTERRES
   158   79  157 1    
   159   80   81 2    
@<TRIPOS>SUBSTRUCTURE
     1 UNK         1 GROUP             0       ****    0 ROOT    
