@<TRIPOS>MOLECULE
3R207
157   159    1
SMALL
USER_CHARGES


@<TRIPOS>ATOM
      1 CA        -50.2583  -31.4717    8.9838 C.3       0 UNK        -0.1975 
      2 C         -49.3720  -31.1474    7.7904 C.2       0 UNK         0.4852 
      3 O         -48.2551  -31.6586    7.7048 O.2       0 UNK        -0.5216 
      4 N         -49.8702  -30.3232    6.8586 N.am      1 UNK        -0.4461 
      5 CA        -49.2116  -30.0128    5.5819 C.3       1 UNK         0.0864 
      6 C6        -50.1956  -29.4111    4.5491 C.3       14 UNK        -0.0898 
      7 S7        -51.6366  -30.4979    4.2643 S.3       14 UNK        -0.2598 
      8 C8        -52.9700  -29.3058    3.9184 C.3       14 UNK         0.0286 
      9 C9        -53.2840  -28.4097    5.1093 C.ar      14 UNK        -0.0844 
     10 C10       -52.9445  -27.0540    5.0732 C.ar      14 UNK        -0.0881 
     11 C11       -53.2442  -26.2153    6.1495 C.ar      14 UNK        -0.0643 
     12 C12       -53.8870  -26.7449    7.2739 C.ar      14 UNK        -0.0930 
     13 C13       -54.2407  -28.0980    7.3197 C.ar      14 UNK        -0.0827 
     14 C14       -53.9373  -28.9252    6.2333 C.ar      14 UNK        -0.1249 
     15 C15       -54.9742  -28.6595    8.5303 C.3       14 UNK         0.0141 
     16 S16       -53.8454  -29.5650    9.6291 S.3       14 UNK        -0.2313 
     17 C17       -54.9143  -29.8792   11.0744 C.3       14 UNK        -0.0915 
     18 CA        -54.7804  -28.7703   12.1685 C.3       13 UNK         0.0968 
     19 C         -56.0922  -27.9677   12.4075 C.2       13 UNK         0.5732 
     20 N         -56.4551  -27.6289   13.6403 N.am      13 UNK        -0.7310 
     21 O         -56.7950  -27.6287   11.4589 O.2       13 UNK        -0.5035 
     22 N         -54.1594  -29.2623   13.4109 N.am      13 UNK        -0.4233 
     23 C         -52.8478  -29.4645   13.5643 C.2       13 UNK         0.4989 
     24 O         -52.0235  -29.3673   12.6534 O.2       13 UNK        -0.4996 
     25 CA        -52.3541  -29.8405   14.9664 C.3       12 UNK         0.0216 
     26 CB        -52.5117  -31.3472   15.2365 C.3       12 UNK        -0.1964 
     27 N         -50.9467  -29.4642   15.0201 N.am      12 UNK        -0.4276 
     28 C         -50.2488  -29.0947   16.0962 C.2       12 UNK         0.5020 
     29 O         -50.6736  -29.1650   17.2507 O.2       12 UNK        -0.5489 
     30 CA        -48.8410  -28.5331   15.8476 C.3       11 UNK         0.0294 
     31 CB        -48.3128  -28.7330   14.4069 C.3       11 UNK        -0.2019 
     32 N         -48.8470  -27.1120   16.1899 N.am      11 UNK        -0.4493 
     33 C         -47.7662  -26.4078   16.5521 C.2       11 UNK         0.4932 
     34 O         -46.6408  -26.9000   16.6449 O.2       11 UNK        -0.5029 
     35 CA        -47.9363  -24.9065   16.8590 C.3       10 UNK         0.0280 
     36 CB        -47.1795  -24.0430   15.8363 C.3       10 UNK        -0.1976 
     37 N         -49.3317  -24.4694   16.8937 N.am      10 UNK        -0.4242 
     38 C         -50.1307  -24.5399   17.9661 C.2       10 UNK         0.5072 
     39 O         -49.7704  -24.9696   19.0627 O.2       10 UNK        -0.5224 
     40 CA        -51.5788  -24.0451   17.7918 C.3       9 UNK         0.0343 
     41 CB        -51.7226  -22.6094   18.3218 C.3       9 UNK        -0.2003 
     42 N         -52.0709  -24.0940   16.4113 N.am      9 UNK        -0.4272 
     43 C         -52.2434  -25.2065   15.6881 C.2       9 UNK         0.4988 
     44 O         -51.9518  -26.3303   16.0912 O.2       9 UNK        -0.5108 
     45 CA        -52.8172  -25.0484   14.2740 C.3       8 UNK         0.0248 
     46 CB        -54.3346  -24.7871   14.3050 C.3       8 UNK        -0.2001 
     47 N         -52.1136  -24.0669   13.4409 N.am      8 UNK        -0.4140 
     48 C         -52.0306  -22.7339   13.5607 C.2       8 UNK         0.5028 
     49 O         -52.5322  -22.0933   14.4858 O.2       8 UNK        -0.5428 
     50 CA        -51.2392  -21.9840   12.4705 C.3       7 UNK         0.0264 
     51 CB        -49.8300  -21.6406   12.9799 C.3       7 UNK        -0.1988 
     52 N         -51.1287  -22.7338   11.2137 N.am      7 UNK        -0.4454 
     53 C         -52.1496  -22.9811   10.3780 C.2       7 UNK         0.5027 
     54 O         -53.2704  -22.4879   10.5095 O.2       7 UNK        -0.5083 
     55 CA        -51.8982  -23.9885    9.2359 C.3       6 UNK         0.0844 
     56 C56       -51.3758  -23.2845    7.9626 C.3       14 UNK        -0.0967 
     57 S57       -51.1669  -24.4337    6.5606 S.3       14 UNK        -0.2604 
     58 C58       -52.8950  -24.7354    6.0722 C.3       14 UNK         0.0134 
     59 N         -51.0473  -25.1032    9.6647 N.am      6 UNK        -0.4116 
     60 C         -51.4072  -26.0206   10.5728 C.2       5 UNK         0.5034 
     61 O         -52.5221  -26.0681   11.0875 O.2       5 UNK        -0.5045 
     62 CA        -50.3237  -27.0010   11.0396 C.3       5 UNK         0.0224 
     63 CB        -50.2418  -28.2209   10.1126 C.3       5 UNK        -0.1978 
     64 N         -49.0142  -26.3573   11.1161 N.am      5 UNK        -0.4737 
     65 C         -48.6251  -25.5536   12.1140 C.2       4 UNK         0.5027 
     66 O         -49.3113  -25.3164   13.1073 O.2       4 UNK        -0.5211 
     67 CA        -47.2473  -24.8839   11.9657 C.3       4 UNK         0.0297 
     68 CB        -46.1591  -25.7651   12.5996 C.3       4 UNK        -0.1993 
     69 N         -46.8927  -24.5938   10.5728 N.am      4 UNK        -0.4486 
     70 C         -47.5465  -23.7250    9.7880 C.2       3 UNK         0.4961 
     71 O         -48.4880  -23.0326   10.1725 O.2       3 UNK        -0.5105 
     72 CA        -47.1214  -23.6614    8.3097 C.3       3 UNK         0.0299 
     73 CB        -45.9902  -22.6390    8.1199 C.3       3 UNK        -0.1972 
     74 N         -46.7188  -24.9555    7.7421 N.am      3 UNK        -0.4305 
     75 C         -47.4911  -26.0504    7.7082 C.2       2 UNK         0.5006 
     76 O         -48.6171  -26.1092    8.2061 O.2       2 UNK        -0.5106 
     77 CA        -46.8870  -27.3011    7.0635 C.3       2 UNK         0.0296 
     78 CB        -45.8811  -27.9759    8.0141 C.3       2 UNK        -0.2002 
     79 N         -47.9635  -28.2378    6.7511 N.am      2 UNK        -0.4032 
     80 C         -47.9664  -29.1136    5.7389 C.2       1 UNK         0.5000 
     81 O         -47.0336  -29.2364    4.9420 O.2       1 UNK        -0.5238 
     82 H82       -51.2045  -30.9331    8.9464 H         1 UNK         0.0889 
     83 H83       -49.7535  -31.2152    9.9144 H         1 UNK         0.0889 
     84 H84       -50.4806  -32.5381    9.0035 H         1 UNK         0.0889 
     85 H85       -50.8054  -29.9548    6.9640 H         1 UNK         0.3028 
     86 H86       -48.8524  -30.9594    5.1715 H         1 UNK         0.0864 
     87 H87       -50.5298  -28.4276    4.8806 H         1 UNK         0.0720 
     88 H88       -49.6987  -29.2577    3.5891 H         1 UNK         0.0720 
     89 H89       -53.8696  -29.8570    3.6410 H         1 UNK         0.0814 
     90 H90       -52.6977  -28.7119    3.0444 H         1 UNK         0.0814 
     91 H91       -52.4474  -26.6456    4.2037 H         1 UNK         0.1469 
     92 H92       -54.1265  -26.1039    8.1103 H         1 UNK         0.1381 
     93 H93       -54.2091  -29.9717    6.2627 H         1 UNK         0.1206 
     94 H94       -55.4500  -27.8524    9.0891 H         1 UNK         0.0813 
     95 H95       -55.7751  -29.3246    8.2043 H         1 UNK         0.0813 
     96 H96       -54.6324  -30.8529   11.4776 H         1 UNK         0.0638 
     97 H97       -55.9423  -30.0078   10.7306 H         1 UNK         0.0638 
     98 H98       -54.1112  -27.9961   11.7920 H         1 UNK         0.0568 
     99 H99       -57.3105  -27.1096   13.7603 H         1 UNK         0.3450 
    100 H100      -55.8870  -27.8386   14.4425 H         1 UNK         0.3450 
    101 H101      -54.7856  -29.4140   14.1875 H         1 UNK         0.2987 
    102 H102      -52.9122  -29.2623   15.7063 H         1 UNK         0.0766 
    103 H103      -53.5598  -31.6460   15.1965 H         1 UNK         0.0798 
    104 H104      -51.9718  -31.9457   14.5015 H         1 UNK         0.0798 
    105 H105      -52.1366  -31.6133   16.2249 H         1 UNK         0.0798 
    106 H106      -50.5436  -29.3363   14.0989 H         1 UNK         0.3198 
    107 H107      -48.1752  -29.0612   16.5336 H         1 UNK         0.0843 
    108 H108      -48.3345  -29.7846   14.1177 H         1 UNK         0.0831 
    109 H109      -47.2768  -28.4058   14.3198 H         1 UNK         0.0831 
    110 H110      -48.8934  -28.1695   13.6765 H         1 UNK         0.0831 
    111 H111      -49.7591  -26.6674   16.1912 H         1 UNK         0.3133 
    112 H112      -47.4842  -24.7308   17.8374 H         1 UNK         0.0566 
    113 H113      -47.1864  -22.9918   16.1247 H         1 UNK         0.0814 
    114 H114      -46.1352  -24.3476   15.7545 H         1 UNK         0.0814 
    115 H115      -47.6227  -24.1185   14.8450 H         1 UNK         0.0814 
    116 H116      -49.7210  -24.1207   16.0295 H         1 UNK         0.3091 
    117 H117      -52.2168  -24.6976   18.3915 H         1 UNK         0.0702 
    118 H118      -52.7611  -22.2788   18.2947 H         1 UNK         0.0785 
    119 H119      -51.1305  -21.9035   17.7377 H         1 UNK         0.0785 
    120 H120      -51.3882  -22.5387   19.3579 H         1 UNK         0.0785 
    121 H121      -52.3112  -23.2108   15.9646 H         1 UNK         0.2998 
    122 H122      -52.6673  -26.0087   13.7777 H         1 UNK         0.0697 
    123 H123      -54.5777  -23.8196   14.7446 H         1 UNK         0.0825 
    124 H124      -54.8479  -25.5468   14.8950 H         1 UNK         0.0825 
    125 H125      -54.7575  -24.8155   13.3005 H         1 UNK         0.0825 
    126 H126      -51.6012  -24.4777   12.6723 H         1 UNK         0.3029 
    127 H127      -51.7687  -21.0513   12.2649 H         1 UNK         0.0897 
    128 H128      -49.2695  -21.0674   12.2410 H         1 UNK         0.0792 
    129 H129      -49.8783  -21.0391   13.8887 H         1 UNK         0.0792 
    130 H130      -49.2556  -22.5374   13.2127 H         1 UNK         0.0792 
    131 H131      -50.2040  -23.0815   10.9682 H         1 UNK         0.3086 
    132 H132      -52.8732  -24.4136    8.9964 H         1 UNK         0.0583 
    133 H133      -52.0509  -22.4820    7.6583 H         1 UNK         0.1020 
    134 H134      -50.4132  -22.8089    8.1579 H         1 UNK         0.1020 
    135 H135      -53.5808  -24.1550    6.6907 H         1 UNK         0.0694 
    136 H136      -53.0376  -24.3754    5.0522 H         1 UNK         0.0694 
    137 H137      -50.1346  -25.1809    9.2288 H         1 UNK         0.2989 
    138 H138      -50.5937  -27.3431   12.0400 H         1 UNK         0.1055 
    139 H139      -49.3880  -28.8510   10.3599 H         1 UNK         0.0806 
    140 H140      -50.1707  -27.9420    9.0624 H         1 UNK         0.0806 
    141 H141      -51.1362  -28.8315   10.2184 H         1 UNK         0.0806 
    142 H142      -48.4307  -26.4321   10.2925 H         1 UNK         0.3061 
    143 H143      -47.2809  -23.9344   12.5030 H         1 UNK         0.0734 
    144 H144      -46.4007  -26.0015   13.6367 H         1 UNK         0.0832 
    145 H145      -46.0469  -26.7129   12.0716 H         1 UNK         0.0832 
    146 H146      -45.1917  -25.2627   12.6013 H         1 UNK         0.0832 
    147 H147      -46.1280  -25.1179   10.1733 H         1 UNK         0.3156 
    148 H148      -47.9868  -23.3176    7.7396 H         1 UNK         0.0589 
    149 H149      -45.0773  -22.9442    8.6329 H         1 UNK         0.0808 
    150 H150      -45.7533  -22.4992    7.0650 H         1 UNK         0.0808 
    151 H151      -46.2761  -21.6635    8.5166 H         1 UNK         0.0808 
    152 H152      -45.8010  -24.9976    7.3220 H         1 UNK         0.3098 
    153 H153      -46.3829  -26.9993    6.1428 H         1 UNK         0.0720 
    154 H154      -45.4458  -28.8665    7.5602 H         1 UNK         0.0791 
    155 H155      -46.3531  -28.2781    8.9502 H         1 UNK         0.0791 
    156 H156      -45.0567  -27.3064    8.2620 H         1 UNK         0.0791 
    157 H157      -48.7904  -28.1338    7.3243 H         1 UNK         0.3028 
@<TRIPOS>BOND
     1    1    2 1    
     2    1   82 1    
     3    1   83 1    
     4    1   84 1    
     5    2    3 2    
     6    2    4 am   BACKBONE|DICT|INTERRES
     7    4    5 1    
     8    4   85 1    
     9    5    6 1    
    10    5   80 1    
    11    5   86 1    
    12    6    7 1    
    13    6   87 1    
    14    6   88 1    
    15    7    8 1    
    16    8    9 1    
    17    8   89 1    
    18    8   90 1    
    19    9   10 ar   
    20    9   14 ar   
    21   10   11 ar   
    22   10   91 1    
    23   11   12 ar   
    24   11   58 1    
    25   12   13 ar   
    26   12   92 1    
    27   13   14 ar   
    28   13   15 1    
    29   14   93 1    
    30   15   16 1    
    31   15   94 1    
    32   15   95 1    
    33   16   17 1    
    34   17   18 1    
    35   17   96 1    
    36   17   97 1    
    37   18   19 1    
    38   18   22 1    
    39   18   98 1    
    40   19   20 am   BACKBONE|DICT|INTERRES
    41   19   21 2    
    42   20   99 1    
    43   20  100 1    
    44   22   23 am   BACKBONE|DICT|INTERRES
    45   22  101 1    
    46   23   24 2    
    47   23   25 1    
    48   25   26 1    
    49   25   27 1    
    50   25  102 1    
    51   26  103 1    
    52   26  104 1    
    53   26  105 1    
    54   27   28 am   BACKBONE|DICT|INTERRES
    55   27  106 1    
    56   28   29 2    
    57   28   30 1    
    58   30   31 1    
    59   30   32 1    
    60   30  107 1    
    61   31  108 1    
    62   31  109 1    
    63   31  110 1    
    64   32   33 am   BACKBONE|DICT|INTERRES
    65   32  111 1    
    66   33   34 2    
    67   33   35 1    
    68   35   36 1    
    69   35   37 1    
    70   35  112 1    
    71   36  113 1    
    72   36  114 1    
    73   36  115 1    
    74   37   38 am   BACKBONE|DICT|INTERRES
    75   37  116 1    
    76   38   39 2    
    77   38   40 1    
    78   40   41 1    
    79   40   42 1    
    80   40  117 1    
    81   41  118 1    
    82   41  119 1    
    83   41  120 1    
    84   42   43 am   BACKBONE|DICT|INTERRES
    85   42  121 1    
    86   43   44 2    
    87   43   45 1    
    88   45   46 1    
    89   45   47 1    
    90   45  122 1    
    91   46  123 1    
    92   46  124 1    
    93   46  125 1    
    94   47   48 am   BACKBONE|DICT|INTERRES
    95   47  126 1    
    96   48   49 2    
    97   48   50 1    
    98   50   51 1    
    99   50   52 1    
   100   50  127 1    
   101   51  128 1    
   102   51  129 1    
   103   51  130 1    
   104   52   53 am   BACKBONE|DICT|INTERRES
   105   52  131 1    
   106   53   54 2    
   107   53   55 1    
   108   55   56 1    
   109   55   59 1    
   110   55  132 1    
   111   56   57 1    
   112   56  133 1    
   113   56  134 1    
   114   57   58 1    
   115   58  135 1    
   116   58  136 1    
   117   59   60 am   BACKBONE|DICT|INTERRES
   118   59  137 1    
   119   60   61 2    
   120   60   62 1    
   121   62   63 1    
   122   62   64 1    
   123   62  138 1    
   124   63  139 1    
   125   63  140 1    
   126   63  141 1    
   127   64   65 am   BACKBONE|DICT|INTERRES
   128   64  142 1    
   129   65   66 2    
   130   65   67 1    
   131   67   68 1    
   132   67   69 1    
   133   67  143 1    
   134   68  144 1    
   135   68  145 1    
   136   68  146 1    
   137   69   70 am   BACKBONE|DICT|INTERRES
   138   69  147 1    
   139   70   71 2    
   140   70   72 1    
   141   72   73 1    
   142   72   74 1    
   143   72  148 1    
   144   73  149 1    
   145   73  150 1    
   146   73  151 1    
   147   74   75 am   BACKBONE|DICT|INTERRES
   148   74  152 1    
   149   75   76 2    
   150   75   77 1    
   151   77   78 1    
   152   77   79 1    
   153   77  153 1    
   154   78  154 1    
   155   78  155 1    
   156   78  156 1    
   157   79   80 am   BACKBONE|DICT|INTERRES
   158   79  157 1    
   159   80   81 2    
@<TRIPOS>SUBSTRUCTURE
     1 UNK         1 GROUP             0       ****    0 ROOT    
