@<TRIPOS>MOLECULE
3R207
157   159    1
SMALL
USER_CHARGES


@<TRIPOS>ATOM
      1 CA        -48.7861  -30.7432    7.5568 C.3       0 UNK        -0.1975 
      2 C         -50.1173  -30.0006    7.6542 C.2       0 UNK         0.4852 
      3 O         -50.6971  -29.9600    8.7356 O.2       0 UNK        -0.5216 
      4 N         -50.6431  -29.4084    6.5703 N.am      1 UNK        -0.4461 
      5 CA        -50.0857  -29.3713    5.2079 C.3       1 UNK         0.0864 
      6 C6        -51.1282  -28.8914    4.1675 C.3       14 UNK        -0.0898 
      7 S7        -52.5903  -29.9750    4.0628 S.3       14 UNK        -0.2598 
      8 C8        -53.9455  -28.7962    4.3587 C.3       14 UNK         0.0286 
      9 C9        -54.1300  -28.5127    5.8412 C.ar      14 UNK        -0.0844 
     10 C10       -53.5640  -27.3768    6.4310 C.ar      14 UNK        -0.0881 
     11 C11       -53.7515  -27.1211    7.7931 C.ar      14 UNK        -0.0643 
     12 C12       -54.5197  -28.0012    8.5599 C.ar      14 UNK        -0.0930 
     13 C13       -55.0876  -29.1398    7.9812 C.ar      14 UNK        -0.0827 
     14 C14       -54.8894  -29.3891    6.6215 C.ar      14 UNK        -0.1249 
     15 C15       -55.9350  -30.0883    8.8164 C.3       14 UNK         0.0141 
     16 S16       -55.0415  -31.6047    9.2967 S.3       14 UNK        -0.2313 
     17 C17       -53.6445  -30.9891   10.3011 C.3       14 UNK        -0.0915 
     18 CA        -53.9756  -30.8827   11.8132 C.3       13 UNK         0.0968 
     19 C         -52.6852  -30.6714   12.6588 C.2       13 UNK         0.5732 
     20 N         -52.5223  -29.5688   13.3814 N.am      13 UNK        -0.7310 
     21 O         -51.8171  -31.5407   12.6751 O.2       13 UNK        -0.5035 
     22 N         -55.0151  -29.8747   12.0572 N.am      13 UNK        -0.4233 
     23 C         -55.8407  -29.8588   13.1063 C.2       13 UNK         0.4989 
     24 O         -55.8848  -30.7313   13.9761 O.2       13 UNK        -0.4996 
     25 CA        -56.7697  -28.6367   13.2032 C.3       12 UNK         0.0216 
     26 CB        -58.2470  -29.0646   13.2110 C.3       12 UNK        -0.1964 
     27 N         -56.4849  -27.8324   14.3932 N.am      12 UNK        -0.4276 
     28 C         -55.3116  -27.2450   14.6620 C.2       12 UNK         0.5020 
     29 O         -54.3234  -27.2985   13.9209 O.2       12 UNK        -0.5489 
     30 CA        -55.2243  -26.4838   15.9889 C.3       11 UNK         0.0294 
     31 CB        -55.1115  -27.4593   17.1767 C.3       11 UNK        -0.2019 
     32 N         -54.0491  -25.6227   15.9424 N.am      11 UNK        -0.4493 
     33 C         -53.8110  -24.5590   16.7171 C.2       11 UNK         0.4932 
     34 O         -54.6076  -24.1359   17.5572 O.2       11 UNK        -0.5029 
     35 CA        -52.4487  -23.8615   16.5185 C.3       10 UNK         0.0280 
     36 CB        -52.0547  -22.9538   17.7026 C.3       10 UNK        -0.1976 
     37 N         -51.3659  -24.8015   16.2010 N.am      10 UNK        -0.4242 
     38 C         -50.9409  -25.8344   16.9474 C.2       10 UNK         0.5072 
     39 O         -51.3865  -26.1229   18.0590 O.2       10 UNK        -0.5224 
     40 CA        -49.8292  -26.7048   16.3406 C.3       9 UNK         0.0343 
     41 CB        -50.4109  -27.6660   15.2920 C.3       9 UNK        -0.2003 
     42 N         -48.7549  -25.9107   15.7434 N.am      9 UNK        -0.4272 
     43 C         -47.8961  -25.1554   16.4438 C.2       9 UNK         0.4988 
     44 O         -47.8749  -25.0984   17.6742 O.2       9 UNK        -0.5108 
     45 CA        -46.8909  -24.3157   15.6394 C.3       8 UNK         0.0248 
     46 CB        -45.6930  -25.1750   15.2041 C.3       8 UNK        -0.2001 
     47 N         -47.4962  -23.6674   14.4727 N.am      8 UNK        -0.4140 
     48 C         -48.4272  -22.7036   14.5427 C.2       8 UNK         0.5028 
     49 O         -48.8340  -22.2183   15.5988 O.2       8 UNK        -0.5428 
     50 CA        -49.0176  -22.1959   13.2164 C.3       7 UNK         0.0264 
     51 CB        -48.0953  -21.1417   12.5839 C.3       7 UNK        -0.1988 
     52 N         -49.2866  -23.2654   12.2510 N.am      7 UNK        -0.4454 
     53 C         -50.1841  -24.2467   12.4329 C.2       7 UNK         0.5027 
     54 O         -50.9024  -24.3366   13.4296 O.2       7 UNK        -0.5083 
     55 CA        -50.2621  -25.3434   11.3505 C.3       6 UNK         0.0844 
     56 C56       -51.0894  -24.8778   10.1272 C.3       14 UNK        -0.0967 
     57 S57       -51.4302  -26.2633    8.9876 S.3       14 UNK        -0.2604 
     58 C58       -53.1263  -25.8995    8.4473 C.3       14 UNK         0.0134 
     59 N         -48.9307  -25.8211   10.9696 N.am      6 UNK        -0.4116 
     60 C         -48.0504  -26.3943   11.8017 C.2       5 UNK         0.5034 
     61 O         -48.2706  -26.6287   12.9897 O.2       5 UNK        -0.5045 
     62 CA        -46.6637  -26.7025   11.2216 C.3       5 UNK         0.0224 
     63 CB        -46.6918  -27.9903   10.3818 C.3       5 UNK        -0.1978 
     64 N         -46.1509  -25.5850   10.4237 N.am      5 UNK        -0.4737 
     65 C         -45.7871  -24.4009   10.9381 C.2       4 UNK         0.5027 
     66 O         -45.8165  -24.1405   12.1394 O.2       4 UNK        -0.5211 
     67 CA        -45.3510  -23.3106    9.9461 C.3       4 UNK         0.0297 
     68 CB        -43.8746  -23.4905    9.5595 C.3       4 UNK        -0.1993 
     69 N         -46.1771  -23.2776    8.7380 N.am      4 UNK        -0.4486 
     70 C         -47.4812  -22.9680    8.7187 C.2       3 UNK         0.4961 
     71 O         -48.1288  -22.6465    9.7138 O.2       3 UNK        -0.5105 
     72 CA        -48.1976  -23.0920    7.3647 C.3       3 UNK         0.0299 
     73 CB        -48.0023  -21.8165    6.5299 C.3       3 UNK        -0.1972 
     74 N         -47.7860  -24.2650    6.5846 N.am      3 UNK        -0.4305 
     75 C         -47.8826  -25.5312    7.0109 C.2       2 UNK         0.5006 
     76 O         -48.2539  -25.8546    8.1402 O.2       2 UNK        -0.5106 
     77 CA        -47.4888  -26.6301    6.0276 C.3       2 UNK         0.0296 
     78 CB        -46.1485  -27.2773    6.4247 C.3       2 UNK        -0.2002 
     79 N         -48.5665  -27.6118    6.0399 N.am      2 UNK        -0.4032 
     80 C         -48.8113  -28.5080    5.0778 C.2       1 UNK         0.5000 
     81 O         -48.0844  -28.6630    4.0947 O.2       1 UNK        -0.5238 
     82 H82       -48.6391  -31.3676    8.4379 H         1 UNK         0.0889 
     83 H83       -47.9541  -30.0415    7.5091 H         1 UNK         0.0889 
     84 H84       -48.7488  -31.3981    6.6877 H         1 UNK         0.0889 
     85 H85       -51.5440  -28.9604    6.6734 H         1 UNK         0.3028 
     86 H86       -49.8032  -30.3892    4.9342 H         1 UNK         0.0864 
     87 H87       -50.6884  -28.8670    3.1680 H         1 UNK         0.0720 
     88 H88       -51.4353  -27.8666    4.3811 H         1 UNK         0.0720 
     89 H89       -54.8670  -29.2174    3.9539 H         1 UNK         0.0814 
     90 H90       -53.7704  -27.8737    3.8029 H         1 UNK         0.0814 
     91 H91       -52.9772  -26.6911    5.8353 H         1 UNK         0.1469 
     92 H92       -54.6663  -27.7991    9.6112 H         1 UNK         0.1381 
     93 H93       -55.3276  -30.2688    6.1696 H         1 UNK         0.1206 
     94 H94       -56.3208  -29.5856    9.7028 H         1 UNK         0.0813 
     95 H95       -56.8151  -30.3785    8.2406 H         1 UNK         0.0813 
     96 H96       -53.2850  -30.0362    9.9128 H         1 UNK         0.0638 
     97 H97       -52.8244  -31.6921   10.1433 H         1 UNK         0.0638 
     98 H98       -54.3717  -31.8502   12.1277 H         1 UNK         0.0568 
     99 H99       -51.6770  -29.4666   13.9162 H         1 UNK         0.3450 
    100 H100      -53.2287  -28.8400   13.4103 H         1 UNK         0.3450 
    101 H101      -55.0082  -29.0835   11.4342 H         1 UNK         0.2987 
    102 H102      -56.6106  -27.9985   12.3312 H         1 UNK         0.0766 
    103 H103      -58.9120  -28.2007   13.2094 H         1 UNK         0.0798 
    104 H104      -58.4880  -29.6731   14.0838 H         1 UNK         0.0798 
    105 H105      -58.4854  -29.6567   12.3263 H         1 UNK         0.0798 
    106 H106      -57.2272  -27.7616   15.0742 H         1 UNK         0.3198 
    107 H107      -56.1183  -25.8655   16.0956 H         1 UNK         0.0843 
    108 H108      -54.2209  -28.0843   17.0970 H         1 UNK         0.0831 
    109 H109      -55.9743  -28.1241   17.2287 H         1 UNK         0.0831 
    110 H110      -55.0591  -26.9269   18.1265 H         1 UNK         0.0831 
    111 H111      -53.3841  -25.8822   15.2226 H         1 UNK         0.3133 
    112 H112      -52.5593  -23.2251   15.6394 H         1 UNK         0.0566 
    113 H113      -51.0953  -22.4674   17.5241 H         1 UNK         0.0814 
    114 H114      -52.7934  -22.1662   17.8556 H         1 UNK         0.0814 
    115 H115      -51.9784  -23.5146   18.6346 H         1 UNK         0.0814 
    116 H116      -50.9624  -24.6820   15.2737 H         1 UNK         0.3091 
    117 H117      -49.3976  -27.3040   17.1452 H         1 UNK         0.0702 
    118 H118      -49.6489  -28.3509   14.9192 H         1 UNK         0.0785 
    119 H119      -50.8249  -27.1301   14.4365 H         1 UNK         0.0785 
    120 H120      -51.2117  -28.2686   15.7229 H         1 UNK         0.0785 
    121 H121      -48.6572  -25.9585   14.7320 H         1 UNK         0.2998 
    122 H122      -46.5176  -23.5286   16.2979 H         1 UNK         0.0697 
    123 H123      -45.9893  -25.9561   14.5033 H         1 UNK         0.0825 
    124 H124      -45.2292  -25.6635   16.0620 H         1 UNK         0.0825 
    125 H125      -44.9252  -24.5687   14.7234 H         1 UNK         0.0825 
    126 H126      -47.1544  -23.9594   13.5609 H         1 UNK         0.3029 
    127 H127      -49.9711  -21.7159   13.4473 H         1 UNK         0.0897 
    128 H128      -48.5499  -20.6986   11.6976 H         1 UNK         0.0792 
    129 H129      -47.8906  -20.3300   13.2832 H         1 UNK         0.0792 
    130 H130      -47.1366  -21.5699   12.2889 H         1 UNK         0.0792 
    131 H131      -48.7651  -23.2268   11.3770 H         1 UNK         0.3086 
    132 H132      -50.7833  -26.1903   11.8029 H         1 UNK         0.0583 
    133 H133      -52.0360  -24.4447   10.4557 H         1 UNK         0.1020 
    134 H134      -50.5667  -24.0923    9.5788 H         1 UNK         0.1020 
    135 H135      -53.7298  -25.5893    9.3018 H         1 UNK         0.0694 
    136 H136      -53.1141  -25.0586    7.7523 H         1 UNK         0.0694 
    137 H137      -48.6757  -25.7137    9.9907 H         1 UNK         0.2989 
    138 H138      -45.9810  -26.8586   12.0599 H         1 UNK         0.1055 
    139 H139      -47.0003  -28.8408   10.9911 H         1 UNK         0.0806 
    140 H140      -45.7072  -28.2235    9.9765 H         1 UNK         0.0806 
    141 H141      -47.3931  -27.9221    9.5498 H         1 UNK         0.0806 
    142 H142      -46.1714  -25.6922    9.4199 H         1 UNK         0.3061 
    143 H143      -45.4564  -22.3466   10.4485 H         1 UNK         0.0734 
    144 H144      -43.5279  -22.6752    8.9244 H         1 UNK         0.0832 
    145 H145      -43.2395  -23.4998   10.4466 H         1 UNK         0.0832 
    146 H146      -43.7044  -24.4278    9.0282 H         1 UNK         0.0832 
    147 H147      -45.7334  -23.5341    7.8683 H         1 UNK         0.3156 
    148 H148      -49.2645  -23.2002    7.5707 H         1 UNK         0.0589 
    149 H149      -46.9582  -21.6692    6.2507 H         1 UNK         0.0808 
    150 H150      -48.3177  -20.9337    7.0882 H         1 UNK         0.0808 
    151 H151      -48.5944  -21.8457    5.6150 H         1 UNK         0.0808 
    152 H152      -47.4616  -24.0911    5.6437 H         1 UNK         0.3098 
    153 H153      -47.4042  -26.2038    5.0257 H         1 UNK         0.0720 
    154 H154      -45.3518  -26.5338    6.4679 H         1 UNK         0.0791 
    155 H155      -45.8433  -28.0343    5.7022 H         1 UNK         0.0791 
    156 H156      -46.2047  -27.7560    7.4021 H         1 UNK         0.0791 
    157 H157      -49.2104  -27.5227    6.8174 H         1 UNK         0.3028 
@<TRIPOS>BOND
     1    1    2 1    
     2    1   82 1    
     3    1   83 1    
     4    1   84 1    
     5    2    3 2    
     6    2    4 am   BACKBONE|DICT|INTERRES
     7    4    5 1    
     8    4   85 1    
     9    5    6 1    
    10    5   80 1    
    11    5   86 1    
    12    6    7 1    
    13    6   87 1    
    14    6   88 1    
    15    7    8 1    
    16    8    9 1    
    17    8   89 1    
    18    8   90 1    
    19    9   10 ar   
    20    9   14 ar   
    21   10   11 ar   
    22   10   91 1    
    23   11   12 ar   
    24   11   58 1    
    25   12   13 ar   
    26   12   92 1    
    27   13   14 ar   
    28   13   15 1    
    29   14   93 1    
    30   15   16 1    
    31   15   94 1    
    32   15   95 1    
    33   16   17 1    
    34   17   18 1    
    35   17   96 1    
    36   17   97 1    
    37   18   19 1    
    38   18   22 1    
    39   18   98 1    
    40   19   20 am   BACKBONE|DICT|INTERRES
    41   19   21 2    
    42   20   99 1    
    43   20  100 1    
    44   22   23 am   BACKBONE|DICT|INTERRES
    45   22  101 1    
    46   23   24 2    
    47   23   25 1    
    48   25   26 1    
    49   25   27 1    
    50   25  102 1    
    51   26  103 1    
    52   26  104 1    
    53   26  105 1    
    54   27   28 am   BACKBONE|DICT|INTERRES
    55   27  106 1    
    56   28   29 2    
    57   28   30 1    
    58   30   31 1    
    59   30   32 1    
    60   30  107 1    
    61   31  108 1    
    62   31  109 1    
    63   31  110 1    
    64   32   33 am   BACKBONE|DICT|INTERRES
    65   32  111 1    
    66   33   34 2    
    67   33   35 1    
    68   35   36 1    
    69   35   37 1    
    70   35  112 1    
    71   36  113 1    
    72   36  114 1    
    73   36  115 1    
    74   37   38 am   BACKBONE|DICT|INTERRES
    75   37  116 1    
    76   38   39 2    
    77   38   40 1    
    78   40   41 1    
    79   40   42 1    
    80   40  117 1    
    81   41  118 1    
    82   41  119 1    
    83   41  120 1    
    84   42   43 am   BACKBONE|DICT|INTERRES
    85   42  121 1    
    86   43   44 2    
    87   43   45 1    
    88   45   46 1    
    89   45   47 1    
    90   45  122 1    
    91   46  123 1    
    92   46  124 1    
    93   46  125 1    
    94   47   48 am   BACKBONE|DICT|INTERRES
    95   47  126 1    
    96   48   49 2    
    97   48   50 1    
    98   50   51 1    
    99   50   52 1    
   100   50  127 1    
   101   51  128 1    
   102   51  129 1    
   103   51  130 1    
   104   52   53 am   BACKBONE|DICT|INTERRES
   105   52  131 1    
   106   53   54 2    
   107   53   55 1    
   108   55   56 1    
   109   55   59 1    
   110   55  132 1    
   111   56   57 1    
   112   56  133 1    
   113   56  134 1    
   114   57   58 1    
   115   58  135 1    
   116   58  136 1    
   117   59   60 am   BACKBONE|DICT|INTERRES
   118   59  137 1    
   119   60   61 2    
   120   60   62 1    
   121   62   63 1    
   122   62   64 1    
   123   62  138 1    
   124   63  139 1    
   125   63  140 1    
   126   63  141 1    
   127   64   65 am   BACKBONE|DICT|INTERRES
   128   64  142 1    
   129   65   66 2    
   130   65   67 1    
   131   67   68 1    
   132   67   69 1    
   133   67  143 1    
   134   68  144 1    
   135   68  145 1    
   136   68  146 1    
   137   69   70 am   BACKBONE|DICT|INTERRES
   138   69  147 1    
   139   70   71 2    
   140   70   72 1    
   141   72   73 1    
   142   72   74 1    
   143   72  148 1    
   144   73  149 1    
   145   73  150 1    
   146   73  151 1    
   147   74   75 am   BACKBONE|DICT|INTERRES
   148   74  152 1    
   149   75   76 2    
   150   75   77 1    
   151   77   78 1    
   152   77   79 1    
   153   77  153 1    
   154   78  154 1    
   155   78  155 1    
   156   78  156 1    
   157   79   80 am   BACKBONE|DICT|INTERRES
   158   79  157 1    
   159   80   81 2    
@<TRIPOS>SUBSTRUCTURE
     1 UNK         1 GROUP             0       ****    0 ROOT    
