@<TRIPOS>MOLECULE
3R207
157   159    1
SMALL
USER_CHARGES


@<TRIPOS>ATOM
      1 CA        -46.8599  -32.1154    6.2543 C.3       0 UNK        -0.1975 
      2 C         -46.2315  -30.8073    6.7267 C.2       0 UNK         0.4852 
      3 O         -45.3828  -30.8387    7.6162 O.2       0 UNK        -0.5216 
      4 N         -46.5914  -29.6423    6.1744 N.am      1 UNK        -0.4461 
      5 CA        -47.5607  -29.4061    5.0993 C.3       1 UNK         0.0864 
      6 C6        -49.0383  -29.7370    5.4580 C.3       14 UNK        -0.0898 
      7 S7        -49.6173  -29.0200    7.0335 S.3       14 UNK        -0.2598 
      8 C8        -51.3503  -29.5576    7.0165 C.3       14 UNK         0.0286 
      9 C9        -52.1273  -28.9024    8.1450 C.ar      14 UNK        -0.0844 
     10 C10       -52.6284  -27.6082    7.9841 C.ar      14 UNK        -0.0881 
     11 C11       -53.3517  -26.9948    9.0102 C.ar      14 UNK        -0.0643 
     12 C12       -53.5847  -27.6918   10.1991 C.ar      14 UNK        -0.0930 
     13 C13       -53.0766  -28.9821   10.3764 C.ar      14 UNK        -0.0827 
     14 C14       -52.3456  -29.5820    9.3465 C.ar      14 UNK        -0.1249 
     15 C15       -53.2909  -29.7177   11.6900 C.3       14 UNK         0.0141 
     16 S16       -54.4670  -31.0977   11.5338 S.3       14 UNK        -0.2313 
     17 C17       -56.0554  -30.2487   11.2176 C.3       14 UNK        -0.0915 
     18 CA        -56.9978  -30.1839   12.4488 C.3       13 UNK         0.0968 
     19 C         -57.4758  -31.5954   12.9074 C.2       13 UNK         0.5732 
     20 N         -57.1340  -32.0598   14.1036 N.am      13 UNK        -0.7310 
     21 O         -58.1812  -32.2747   12.1649 O.2       13 UNK        -0.5035 
     22 N         -56.4456  -29.3157   13.5012 N.am      13 UNK        -0.4233 
     23 C         -57.1469  -28.8048   14.5210 C.2       13 UNK         0.4989 
     24 O         -58.3443  -29.0203   14.7127 O.2       13 UNK        -0.4996 
     25 CA        -56.3850  -27.8828   15.4875 C.3       12 UNK         0.0216 
     26 CB        -55.6396  -28.7099   16.5471 C.3       12 UNK        -0.1964 
     27 N         -55.4491  -26.9629   14.8285 N.am      12 UNK        -0.4276 
     28 C         -55.8121  -25.9866   13.9779 C.2       12 UNK         0.5020 
     29 O         -56.9712  -25.8234   13.5921 O.2       12 UNK        -0.5489 
     30 CA        -54.7107  -25.0205   13.4839 C.3       11 UNK         0.0294 
     31 CB        -55.2690  -23.6496   13.0495 C.3       11 UNK        -0.2019 
     32 N         -53.6038  -24.8430   14.4289 N.am      11 UNK        -0.4493 
     33 C         -53.6706  -24.4496   15.7107 C.2       11 UNK         0.4932 
     34 O         -54.7062  -24.0660   16.2572 O.2       11 UNK        -0.5029 
     35 CA        -52.3636  -24.5304   16.5279 C.3       10 UNK         0.0280 
     36 CB        -52.6248  -24.7486   18.0331 C.3       10 UNK        -0.1976 
     37 N         -51.4074  -25.5300   16.0296 N.am      10 UNK        -0.4242 
     38 C         -51.6119  -26.8477   15.8595 C.2       10 UNK         0.5072 
     39 O         -52.6866  -27.4002   16.1020 O.2       10 UNK        -0.5224 
     40 CA        -50.4632  -27.6972   15.2761 C.3       9 UNK         0.0343 
     41 CB        -50.9424  -28.4815   14.0432 C.3       9 UNK        -0.2003 
     42 N         -49.2848  -26.9139   14.8999 N.am      9 UNK        -0.4272 
     43 C         -48.3257  -26.5057   15.7412 C.2       9 UNK         0.4988 
     44 O         -48.2813  -26.8137   16.9324 O.2       9 UNK        -0.5108 
     45 CA        -47.2624  -25.5513   15.1667 C.3       8 UNK         0.0248 
     46 CB        -46.1088  -26.3454   14.5344 C.3       8 UNK        -0.2001 
     47 N         -47.8063  -24.5965   14.1919 N.am      8 UNK        -0.4140 
     48 C         -48.7493  -23.6833   14.4713 C.2       8 UNK         0.5028 
     49 O         -49.2285  -23.5222   15.5936 O.2       8 UNK        -0.5428 
     50 CA        -49.2937  -22.8428   13.3050 C.3       7 UNK         0.0264 
     51 CB        -48.3349  -21.6915   12.9639 C.3       7 UNK        -0.1988 
     52 N         -49.5712  -23.6333   12.1038 N.am      7 UNK        -0.4454 
     53 C         -50.4678  -24.6297   12.0296 C.2       7 UNK         0.5027 
     54 O         -51.1791  -24.9825   12.9714 O.2       7 UNK        -0.5083 
     55 CA        -50.5435  -25.4008   10.6933 C.3       6 UNK         0.0844 
     56 C56       -51.3039  -24.6045    9.6014 C.3       14 UNK        -0.0967 
     57 S57       -53.0808  -24.4012    9.9793 S.3       14 UNK        -0.2604 
     58 C58       -53.8716  -25.5756    8.8338 C.3       14 UNK         0.0134 
     59 N         -49.2122  -25.8198   10.2434 N.am      6 UNK        -0.4116 
     60 C         -48.3729  -26.5951   10.9480 C.2       5 UNK         0.5034 
     61 O         -48.6607  -27.1304   12.0180 O.2       5 UNK        -0.5045 
     62 CA        -46.9417  -26.7371   10.4078 C.3       5 UNK         0.0224 
     63 CB        -46.8469  -27.8542    9.3585 C.3       5 UNK        -0.1978 
     64 N         -46.4418  -25.4768    9.8522 N.am      5 UNK        -0.4737 
     65 C         -46.1164  -24.4093   10.5953 C.2       4 UNK         0.5027 
     66 O         -46.1562  -24.3978   11.8246 O.2       4 UNK        -0.5211 
     67 CA        -45.7205  -23.1284    9.8410 C.3       4 UNK         0.0297 
     68 CB        -44.2372  -23.1731    9.4423 C.3       4 UNK        -0.1993 
     69 N         -46.5438  -22.8936    8.6519 N.am      4 UNK        -0.4486 
     70 C         -47.8594  -22.6357    8.6795 C.2       3 UNK         0.4961 
     71 O         -48.5081  -22.5075    9.7164 O.2       3 UNK        -0.5105 
     72 CA        -48.5872  -22.5612    7.3244 C.3       3 UNK         0.0299 
     73 CB        -48.5722  -21.1224    6.7855 C.3       3 UNK        -0.1972 
     74 N         -48.0441  -23.4740    6.3111 N.am      3 UNK        -0.4305 
     75 C         -47.9754  -24.8059    6.4418 C.2       2 UNK         0.5006 
     76 O         -48.3762  -25.4181    7.4364 O.2       2 UNK        -0.5106 
     77 CA        -47.2920  -25.5688    5.3008 C.3       2 UNK         0.0296 
     78 CB        -45.7850  -25.2453    5.2444 C.3       2 UNK        -0.2002 
     79 N         -47.4814  -26.9988    5.5194 N.am      2 UNK        -0.4032 
     80 C         -47.3842  -27.9629    4.5969 C.2       1 UNK         0.5000 
     81 O         -47.1202  -27.7565    3.4109 O.2       1 UNK        -0.5238 
     82 H82       -47.0421  -32.1251    5.1812 H         1 UNK         0.0889 
     83 H83       -47.8010  -32.2895    6.7747 H         1 UNK         0.0889 
     84 H84       -46.1977  -32.9518    6.4767 H         1 UNK         0.0889 
     85 H85       -46.1159  -28.8081    6.4884 H         1 UNK         0.3028 
     86 H86       -47.2746  -30.0421    4.2594 H         1 UNK         0.0864 
     87 H87       -49.7024  -29.4049    4.6575 H         1 UNK         0.0720 
     88 H88       -49.1789  -30.8161    5.5111 H         1 UNK         0.0720 
     89 H89       -51.8063  -29.3004    6.0592 H         1 UNK         0.0814 
     90 H90       -51.3945  -30.6447    7.0996 H         1 UNK         0.0814 
     91 H91       -52.4444  -27.0767    7.0603 H         1 UNK         0.1469 
     92 H92       -54.1465  -27.2183   10.9910 H         1 UNK         0.1381 
     93 H93       -51.9500  -30.5795    9.4815 H         1 UNK         0.1206 
     94 H94       -53.6265  -29.0340   12.4703 H         1 UNK         0.0813 
     95 H95       -52.3344  -30.1189   12.0270 H         1 UNK         0.0813 
     96 H96       -56.5506  -30.7690   10.3959 H         1 UNK         0.0638 
     97 H97       -55.8681  -29.2418   10.8445 H         1 UNK         0.0638 
     98 H98       -57.9070  -29.6859   12.1062 H         1 UNK         0.0568 
     99 H99       -56.5548  -31.5119   14.7178 H         1 UNK         0.3450 
    100 H100      -57.4545  -32.9714   14.3888 H         1 UNK         0.3450 
    101 H101      -55.4627  -29.1062   13.4371 H         1 UNK         0.2987 
    102 H102      -57.1283  -27.2709   16.0030 H         1 UNK         0.0766 
    103 H103      -55.1902  -28.0673   17.3048 H         1 UNK         0.0798 
    104 H104      -54.8428  -29.3107   16.1066 H         1 UNK         0.0798 
    105 H105      -56.3180  -29.3909   17.0631 H         1 UNK         0.0798 
    106 H106      -54.4806  -27.0100   15.1330 H         1 UNK         0.3198 
    107 H107      -54.2736  -25.4897   12.6027 H         1 UNK         0.0843 
    108 H108      -54.4754  -22.9986   12.6826 H         1 UNK         0.0831 
    109 H109      -55.7716  -23.1394   13.8717 H         1 UNK         0.0831 
    110 H110      -55.9925  -23.7592   12.2407 H         1 UNK         0.0831 
    111 H111      -52.6814  -25.0651   14.0548 H         1 UNK         0.3133 
    112 H112      -51.8767  -23.5615   16.4120 H         1 UNK         0.0566 
    113 H113      -51.6919  -24.7874   18.5954 H         1 UNK         0.0814 
    114 H114      -53.2191  -23.9355   18.4517 H         1 UNK         0.0814 
    115 H115      -53.1671  -25.6767   18.2173 H         1 UNK         0.0814 
    116 H116      -50.5057  -25.1495   15.7629 H         1 UNK         0.3091 
    117 H117      -50.1761  -28.4180   16.0442 H         1 UNK         0.0702 
    118 H118      -51.7690  -29.1450   14.2994 H         1 UNK         0.0785 
    119 H119      -50.1457  -29.1023   13.6331 H         1 UNK         0.0785 
    120 H120      -51.2852  -27.8141   13.2511 H         1 UNK         0.0785 
    121 H121      -49.2097  -26.6621   13.9187 H         1 UNK         0.2998 
    122 H122      -46.8580  -24.9713   15.9988 H         1 UNK         0.0697 
    123 H123      -46.4481  -26.9444   13.6894 H         1 UNK         0.0825 
    124 H124      -45.6618  -27.0275   15.2587 H         1 UNK         0.0825 
    125 H125      -45.3176  -25.6840   14.1809 H         1 UNK         0.0825 
    126 H126      -47.4105  -24.6229   13.2549 H         1 UNK         0.3029 
    127 H127      -50.2410  -22.4081   13.6313 H         1 UNK         0.0897 
    128 H128      -48.7549  -21.0409   12.1965 H         1 UNK         0.0792 
    129 H129      -48.1384  -21.0738   13.8412 H         1 UNK         0.0792 
    130 H130      -47.3747  -22.0581   12.6004 H         1 UNK         0.0792 
    131 H131      -49.0629  -23.3697   11.2616 H         1 UNK         0.3086 
    132 H132      -51.0982  -26.3217   10.8842 H         1 UNK         0.0583 
    133 H133      -50.8715  -23.6126    9.4695 H         1 UNK         0.1020 
    134 H134      -51.1986  -25.1005    8.6352 H         1 UNK         0.1020 
    135 H135      -54.9488  -25.5650    9.0055 H         1 UNK         0.0694 
    136 H136      -53.7199  -25.2278    7.8107 H         1 UNK         0.0694 
    137 H137      -48.8981  -25.4711    9.3433 H         1 UNK         0.2989 
    138 H138      -46.3009  -27.0145   11.2476 H         1 UNK         0.1055 
    139 H139      -47.2004  -28.8028    9.7653 H         1 UNK         0.0806 
    140 H140      -45.8184  -28.0071    9.0312 H         1 UNK         0.0806 
    141 H141      -47.4517  -27.6361    8.4812 H         1 UNK         0.0806 
    142 H142      -46.4484  -25.3853    8.8467 H         1 UNK         0.3061 
    143 H143      -45.8658  -22.2861   10.5208 H         1 UNK         0.0734 
    144 H144      -43.9212  -22.2371    8.9814 H         1 UNK         0.0832 
    145 H145      -43.6046  -23.3302   10.3173 H         1 UNK         0.0832 
    146 H146      -44.0282  -23.9818    8.7408 H         1 UNK         0.0832 
    147 H147      -46.0891  -22.9698    7.7541 H         1 UNK         0.3156 
    148 H148      -49.6266  -22.8474    7.4951 H         1 UNK         0.0589 
    149 H149      -47.5601  -20.7836    6.5604 H         1 UNK         0.0808 
    150 H150      -49.1678  -21.0318    5.8769 H         1 UNK         0.0808 
    151 H151      -48.9928  -20.4289    7.5154 H         1 UNK         0.0808 
    152 H152      -47.6930  -23.0510    5.4635 H         1 UNK         0.3098 
    153 H153      -47.7715  -25.2822    4.3625 H         1 UNK         0.0720 
    154 H154      -45.2926  -25.7858    4.4358 H         1 UNK         0.0791 
    155 H155      -45.2811  -25.5103    6.1749 H         1 UNK         0.0791 
    156 H156      -45.6095  -24.1839    5.0665 H         1 UNK         0.0791 
    157 H157      -47.8287  -27.2310    6.4435 H         1 UNK         0.3028 
@<TRIPOS>BOND
     1    1    2 1    
     2    1   82 1    
     3    1   83 1    
     4    1   84 1    
     5    2    3 2    
     6    2    4 am   BACKBONE|DICT|INTERRES
     7    4    5 1    
     8    4   85 1    
     9    5    6 1    
    10    5   80 1    
    11    5   86 1    
    12    6    7 1    
    13    6   87 1    
    14    6   88 1    
    15    7    8 1    
    16    8    9 1    
    17    8   89 1    
    18    8   90 1    
    19    9   10 ar   
    20    9   14 ar   
    21   10   11 ar   
    22   10   91 1    
    23   11   12 ar   
    24   11   58 1    
    25   12   13 ar   
    26   12   92 1    
    27   13   14 ar   
    28   13   15 1    
    29   14   93 1    
    30   15   16 1    
    31   15   94 1    
    32   15   95 1    
    33   16   17 1    
    34   17   18 1    
    35   17   96 1    
    36   17   97 1    
    37   18   19 1    
    38   18   22 1    
    39   18   98 1    
    40   19   20 am   BACKBONE|DICT|INTERRES
    41   19   21 2    
    42   20   99 1    
    43   20  100 1    
    44   22   23 am   BACKBONE|DICT|INTERRES
    45   22  101 1    
    46   23   24 2    
    47   23   25 1    
    48   25   26 1    
    49   25   27 1    
    50   25  102 1    
    51   26  103 1    
    52   26  104 1    
    53   26  105 1    
    54   27   28 am   BACKBONE|DICT|INTERRES
    55   27  106 1    
    56   28   29 2    
    57   28   30 1    
    58   30   31 1    
    59   30   32 1    
    60   30  107 1    
    61   31  108 1    
    62   31  109 1    
    63   31  110 1    
    64   32   33 am   BACKBONE|DICT|INTERRES
    65   32  111 1    
    66   33   34 2    
    67   33   35 1    
    68   35   36 1    
    69   35   37 1    
    70   35  112 1    
    71   36  113 1    
    72   36  114 1    
    73   36  115 1    
    74   37   38 am   BACKBONE|DICT|INTERRES
    75   37  116 1    
    76   38   39 2    
    77   38   40 1    
    78   40   41 1    
    79   40   42 1    
    80   40  117 1    
    81   41  118 1    
    82   41  119 1    
    83   41  120 1    
    84   42   43 am   BACKBONE|DICT|INTERRES
    85   42  121 1    
    86   43   44 2    
    87   43   45 1    
    88   45   46 1    
    89   45   47 1    
    90   45  122 1    
    91   46  123 1    
    92   46  124 1    
    93   46  125 1    
    94   47   48 am   BACKBONE|DICT|INTERRES
    95   47  126 1    
    96   48   49 2    
    97   48   50 1    
    98   50   51 1    
    99   50   52 1    
   100   50  127 1    
   101   51  128 1    
   102   51  129 1    
   103   51  130 1    
   104   52   53 am   BACKBONE|DICT|INTERRES
   105   52  131 1    
   106   53   54 2    
   107   53   55 1    
   108   55   56 1    
   109   55   59 1    
   110   55  132 1    
   111   56   57 1    
   112   56  133 1    
   113   56  134 1    
   114   57   58 1    
   115   58  135 1    
   116   58  136 1    
   117   59   60 am   BACKBONE|DICT|INTERRES
   118   59  137 1    
   119   60   61 2    
   120   60   62 1    
   121   62   63 1    
   122   62   64 1    
   123   62  138 1    
   124   63  139 1    
   125   63  140 1    
   126   63  141 1    
   127   64   65 am   BACKBONE|DICT|INTERRES
   128   64  142 1    
   129   65   66 2    
   130   65   67 1    
   131   67   68 1    
   132   67   69 1    
   133   67  143 1    
   134   68  144 1    
   135   68  145 1    
   136   68  146 1    
   137   69   70 am   BACKBONE|DICT|INTERRES
   138   69  147 1    
   139   70   71 2    
   140   70   72 1    
   141   72   73 1    
   142   72   74 1    
   143   72  148 1    
   144   73  149 1    
   145   73  150 1    
   146   73  151 1    
   147   74   75 am   BACKBONE|DICT|INTERRES
   148   74  152 1    
   149   75   76 2    
   150   75   77 1    
   151   77   78 1    
   152   77   79 1    
   153   77  153 1    
   154   78  154 1    
   155   78  155 1    
   156   78  156 1    
   157   79   80 am   BACKBONE|DICT|INTERRES
   158   79  157 1    
   159   80   81 2    
@<TRIPOS>SUBSTRUCTURE
     1 UNK         1 GROUP             0       ****    0 ROOT    
