@<TRIPOS>MOLECULE
3R207
157   159    1
SMALL
USER_CHARGES


@<TRIPOS>ATOM
      1 CA        -48.5596  -29.1625    1.5753 C.3       0 UNK        -0.1975 
      2 C         -49.6911  -28.9061    2.5595 C.2       0 UNK         0.4852 
      3 O         -50.8586  -28.9243    2.1687 O.2       0 UNK        -0.5216 
      4 N         -49.3545  -28.6624    3.8333 N.am      1 UNK        -0.4461 
      5 CA        -50.3107  -28.4249    4.9244 C.3       1 UNK         0.0864 
      6 C6        -49.6645  -28.6270    6.3197 C.3       14 UNK        -0.0898 
      7 S7        -48.7962  -30.2203    6.5240 S.3       14 UNK        -0.2598 
      8 C8        -50.1665  -31.3881    6.8007 C.3       14 UNK         0.0286 
      9 C9        -50.9383  -31.0989    8.0805 C.ar      14 UNK        -0.0844 
     10 C10       -50.3970  -31.4329    9.3265 C.ar      14 UNK        -0.0881 
     11 C11       -51.1183  -31.1934   10.5007 C.ar      14 UNK        -0.0643 
     12 C12       -52.3828  -30.6025   10.4205 C.ar      14 UNK        -0.0930 
     13 C13       -52.9407  -30.2748    9.1806 C.ar      14 UNK        -0.0827 
     14 C14       -52.2131  -30.5293    8.0144 C.ar      14 UNK        -0.1249 
     15 C15       -54.3519  -29.7018    9.1075 C.3       14 UNK         0.0141 
     16 S16       -54.4824  -28.1789    8.1145 S.3       14 UNK        -0.2313 
     17 C17       -53.4521  -27.0057    9.0601 C.3       14 UNK        -0.0915 
     18 CA        -54.2563  -26.0573    9.9963 C.3       13 UNK         0.0968 
     19 C         -55.1680  -25.0371    9.2549 C.2       13 UNK         0.5732 
     20 N         -56.3445  -24.6992    9.7725 N.am      13 UNK        -0.7310 
     21 O         -54.7967  -24.5143    8.2073 O.2       13 UNK        -0.5035 
     22 N         -54.9271  -26.7663   11.0996 N.am      13 UNK        -0.4233 
     23 C         -54.2912  -27.2318   12.1774 C.2       13 UNK         0.4989 
     24 O         -53.0684  -27.1904   12.3187 O.2       13 UNK        -0.4996 
     25 CA        -55.1472  -27.8510   13.2886 C.3       12 UNK         0.0216 
     26 CB        -55.5031  -29.3160   12.9662 C.3       12 UNK        -0.1964 
     27 N         -54.3699  -27.7587   14.5215 N.am      12 UNK        -0.4276 
     28 C         -54.7753  -28.0351   15.7652 C.2       12 UNK         0.5020 
     29 O         -55.9007  -28.4424   16.0559 O.2       12 UNK        -0.5489 
     30 CA        -53.7460  -27.7830   16.8765 C.3       11 UNK         0.0294 
     31 CB        -52.6460  -28.8587   16.8669 C.3       11 UNK        -0.2019 
     32 N         -53.1386  -26.4595   16.7366 N.am      11 UNK        -0.4493 
     33 C         -53.7168  -25.3139   17.1229 C.2       11 UNK         0.4932 
     34 O         -54.8093  -25.2597   17.6905 O.2       11 UNK        -0.5029 
     35 CA        -52.9441  -24.0150   16.8166 C.3       10 UNK         0.0280 
     36 CB        -53.4405  -22.8042   17.6351 C.3       10 UNK        -0.1976 
     37 N         -51.4901  -24.1698   16.9358 N.am      10 UNK        -0.4242 
     38 C         -50.7845  -24.5019   18.0287 C.2       10 UNK         0.5072 
     39 O         -51.2813  -24.6671   19.1438 O.2       10 UNK        -0.5224 
     40 CA        -49.2674  -24.7170   17.8574 C.3       9 UNK         0.0343 
     41 CB        -48.9268  -26.2088   18.0146 C.3       9 UNK        -0.2003 
     42 N         -48.7467  -24.2499   16.5696 N.am      9 UNK        -0.4272 
     43 C         -48.5470  -22.9667   16.2370 C.2       9 UNK         0.4988 
     44 O         -48.6987  -22.0247   17.0152 O.2       9 UNK        -0.5108 
     45 CA        -48.1558  -22.6855   14.7739 C.3       8 UNK         0.0248 
     46 CB        -46.6437  -22.8664   14.5692 C.3       8 UNK        -0.2001 
     47 N         -48.8916  -23.5204   13.8168 N.am      8 UNK        -0.4140 
     48 C         -50.2237  -23.4942   13.6528 C.2       8 UNK         0.5028 
     49 O         -50.9746  -22.7292   14.2561 O.2       8 UNK        -0.5428 
     50 CA        -50.8303  -24.5314   12.7000 C.3       7 UNK         0.0264 
     51 CB        -50.7704  -24.0462   11.2419 C.3       7 UNK        -0.1988 
     52 N         -50.1588  -25.8231   12.8200 N.am      7 UNK        -0.4454 
     53 C         -50.3397  -26.6857   13.8318 C.2       7 UNK         0.5027 
     54 O         -51.0866  -26.4809   14.7908 O.2       7 UNK        -0.5083 
     55 CA        -49.5326  -27.9970   13.7551 C.3       6 UNK         0.0844 
     56 C56       -50.2279  -28.9739   12.7699 C.3       14 UNK        -0.0967 
     57 S57       -49.2679  -30.4950   12.4655 S.3       14 UNK        -0.2604 
     58 C58       -50.5571  -31.6217   11.8512 C.3       14 UNK         0.0134 
     59 N         -48.1325  -27.7547   13.3955 N.am      6 UNK        -0.4116 
     60 C         -47.2658  -26.9604   14.0399 C.2       5 UNK         0.5034 
     61 O         -47.5161  -26.3722   15.0899 O.2       5 UNK        -0.5045 
     62 CA        -45.9091  -26.7259   13.3495 C.3       5 UNK         0.0224 
     63 CB        -44.8747  -27.7536   13.8339 C.3       5 UNK        -0.1978 
     64 N         -45.9901  -26.7619   11.8832 N.am      5 UNK        -0.4737 
     65 C         -46.7818  -25.9743   11.1426 C.2       4 UNK         0.5027 
     66 O         -47.4903  -25.0767   11.6108 O.2       4 UNK        -0.5211 
     67 CA        -46.8581  -26.3040    9.6495 C.3       4 UNK         0.0297 
     68 CB        -47.5222  -27.6829    9.4339 C.3       4 UNK        -0.1993 
     69 N         -47.6321  -25.2563    8.9904 N.am      4 UNK        -0.4486 
     70 C         -47.7571  -25.0845    7.6734 C.2       3 UNK         0.4961 
     71 O         -47.1842  -25.7775    6.8275 O.2       3 UNK        -0.5105 
     72 CA        -48.6834  -23.9538    7.2134 C.3       3 UNK         0.0299 
     73 CB        -47.9254  -22.6208    7.0856 C.3       3 UNK        -0.1972 
     74 N         -49.2235  -24.3618    5.9244 N.am      3 UNK        -0.4305 
     75 C         -50.3540  -23.9398    5.3487 C.2       2 UNK         0.5006 
     76 O         -51.0569  -23.0309    5.7910 O.2       2 UNK        -0.5106 
     77 CA        -50.7804  -24.6806    4.0670 C.3       2 UNK         0.0296 
     78 CB        -50.1794  -24.0046    2.8237 C.3       2 UNK        -0.2002 
     79 N         -50.3912  -26.0954    4.0909 N.am      2 UNK        -0.4032 
     80 C         -50.9725  -27.0293    4.8613 C.2       1 UNK         0.5000 
     81 O         -51.9795  -26.8148    5.5364 O.2       1 UNK        -0.5238 
     82 H82       -47.5824  -29.1153    2.0555 H         1 UNK         0.0889 
     83 H83       -48.5815  -28.4217    0.7765 H         1 UNK         0.0889 
     84 H84       -48.6694  -30.1499    1.1277 H         1 UNK         0.0889 
     85 H85       -48.3820  -28.6896    4.1071 H         1 UNK         0.3028 
     86 H86       -51.1180  -29.1533    4.8227 H         1 UNK         0.0864 
     87 H87       -48.9318  -27.8405    6.5039 H         1 UNK         0.0720 
     88 H88       -50.4086  -28.5254    7.1117 H         1 UNK         0.0720 
     89 H89       -49.7591  -32.3989    6.8494 H         1 UNK         0.0814 
     90 H90       -50.8309  -31.3745    5.9355 H         1 UNK         0.0814 
     91 H91       -49.4175  -31.8882    9.3821 H         1 UNK         0.1469 
     92 H92       -52.9427  -30.4212   11.3262 H         1 UNK         0.1381 
     93 H93       -52.6444  -30.2847    7.0532 H         1 UNK         0.1206 
     94 H94       -54.7380  -29.4991   10.1048 H         1 UNK         0.0813 
     95 H95       -55.0095  -30.4559    8.6738 H         1 UNK         0.0813 
     96 H96       -52.7079  -27.5572    9.6355 H         1 UNK         0.0638 
     97 H97       -52.8745  -26.4211    8.3419 H         1 UNK         0.0638 
     98 H98       -53.5179  -25.4047   10.4650 H         1 UNK         0.0568 
     99 H99       -56.9133  -24.0306    9.2770 H         1 UNK         0.3450 
    100 H100      -56.6513  -25.0447   10.6661 H         1 UNK         0.3450 
    101 H101      -55.9274  -26.8703   11.0146 H         1 UNK         0.2987 
    102 H102      -56.0590  -27.2623   13.4059 H         1 UNK         0.0766 
    103 H103      -56.1301  -29.7575   13.7404 H         1 UNK         0.0798 
    104 H104      -54.6115  -29.9354   12.8715 H         1 UNK         0.0798 
    105 H105      -56.0626  -29.3892   12.0336 H         1 UNK         0.0798 
    106 H106      -53.4284  -27.4099   14.3710 H         1 UNK         0.3198 
    107 H107      -54.2631  -27.8356   17.8373 H         1 UNK         0.0843 
    108 H108      -52.0802  -28.8591   15.9346 H         1 UNK         0.0831 
    109 H109      -53.0752  -29.8542   16.9881 H         1 UNK         0.0831 
    110 H110      -51.9404  -28.7083   17.6843 H         1 UNK         0.0831 
    111 H111      -52.2676  -26.4076   16.2108 H         1 UNK         0.3133 
    112 H112      -53.1343  -23.7976   15.7646 H         1 UNK         0.0566 
    113 H113      -52.8846  -21.9014   17.3818 H         1 UNK         0.0814 
    114 H114      -54.4933  -22.6018   17.4348 H         1 UNK         0.0814 
    115 H115      -53.3405  -22.9710   18.7080 H         1 UNK         0.0814 
    116 H116      -50.9789  -24.0407   16.0718 H         1 UNK         0.3091 
    117 H117      -48.7659  -24.1640   18.6543 H         1 UNK         0.0702 
    118 H118      -47.8516  -26.3786   17.9548 H         1 UNK         0.0785 
    119 H119      -49.4041  -26.8128   17.2413 H         1 UNK         0.0785 
    120 H120      -49.2617  -26.5898   18.9803 H         1 UNK         0.0785 
    121 H121      -48.5109  -24.9721   15.8929 H         1 UNK         0.2998 
    122 H122      -48.4057  -21.6449   14.5568 H         1 UNK         0.0697 
    123 H123      -46.3170  -23.8691   14.8427 H         1 UNK         0.0825 
    124 H124      -46.0833  -22.1650   15.1887 H         1 UNK         0.0825 
    125 H125      -46.3553  -22.6876   13.5331 H         1 UNK         0.0825 
    126 H126      -48.3494  -24.1581   13.2425 H         1 UNK         0.3029 
    127 H127      -51.8802  -24.6680   12.9704 H         1 UNK         0.0897 
    128 H128      -49.7539  -23.8014   10.9346 H         1 UNK         0.0792 
    129 H129      -51.3730  -23.1467   11.1102 H         1 UNK         0.0792 
    130 H130      -51.1563  -24.7995   10.5550 H         1 UNK         0.0792 
    131 H131      -49.4674  -26.0368   12.1149 H         1 UNK         0.3086 
    132 H132      -49.5355  -28.4469   14.7499 H         1 UNK         0.0583 
    133 H133      -51.2127  -29.2474   13.1546 H         1 UNK         0.1020 
    134 H134      -50.4078  -28.4995   11.8022 H         1 UNK         0.1020 
    135 H135      -50.1307  -32.6218   11.7602 H         1 UNK         0.0694 
    136 H136      -51.3521  -31.7003   12.5945 H         1 UNK         0.0694 
    137 H137      -47.8127  -28.2207   12.5599 H         1 UNK         0.2989 
    138 H138      -45.5636  -25.7309   13.6345 H         1 UNK         0.1055 
    139 H139      -44.7819  -27.7299   14.9208 H         1 UNK         0.0806 
    140 H140      -43.8864  -27.5469   13.4228 H         1 UNK         0.0806 
    141 H141      -45.1507  -28.7709   13.5529 H         1 UNK         0.0806 
    142 H142      -45.4369  -27.4681   11.4177 H         1 UNK         0.3061 
    143 H143      -45.8438  -26.3086    9.2452 H         1 UNK         0.0734 
    144 H144      -47.4944  -27.9766    8.3857 H         1 UNK         0.0832 
    145 H145      -47.0103  -28.4721    9.9851 H         1 UNK         0.0832 
    146 H146      -48.5655  -27.6861    9.7525 H         1 UNK         0.0832 
    147 H147      -48.0737  -24.6159    9.6396 H         1 UNK         0.3156 
    148 H148      -49.5023  -23.8500    7.9287 H         1 UNK         0.0589 
    149 H149      -47.5041  -22.3169    8.0446 H         1 UNK         0.0808 
    150 H150      -47.1019  -22.6935    6.3739 H         1 UNK         0.0808 
    151 H151      -48.5846  -21.8187    6.7533 H         1 UNK         0.0808 
    152 H152      -48.7043  -25.1229    5.5038 H         1 UNK         0.3098 
    153 H153      -51.8688  -24.6232    3.9952 H         1 UNK         0.0720 
    154 H154      -50.5235  -24.4835    1.9067 H         1 UNK         0.0791 
    155 H155      -49.0891  -24.0355    2.8312 H         1 UNK         0.0791 
    156 H156      -50.4751  -22.9558    2.7706 H         1 UNK         0.0791 
    157 H157      -49.5843  -26.3622    3.5461 H         1 UNK         0.3028 
@<TRIPOS>BOND
     1    1    2 1    
     2    1   82 1    
     3    1   83 1    
     4    1   84 1    
     5    2    3 2    
     6    2    4 am   BACKBONE|DICT|INTERRES
     7    4    5 1    
     8    4   85 1    
     9    5    6 1    
    10    5   80 1    
    11    5   86 1    
    12    6    7 1    
    13    6   87 1    
    14    6   88 1    
    15    7    8 1    
    16    8    9 1    
    17    8   89 1    
    18    8   90 1    
    19    9   10 ar   
    20    9   14 ar   
    21   10   11 ar   
    22   10   91 1    
    23   11   12 ar   
    24   11   58 1    
    25   12   13 ar   
    26   12   92 1    
    27   13   14 ar   
    28   13   15 1    
    29   14   93 1    
    30   15   16 1    
    31   15   94 1    
    32   15   95 1    
    33   16   17 1    
    34   17   18 1    
    35   17   96 1    
    36   17   97 1    
    37   18   19 1    
    38   18   22 1    
    39   18   98 1    
    40   19   20 am   BACKBONE|DICT|INTERRES
    41   19   21 2    
    42   20   99 1    
    43   20  100 1    
    44   22   23 am   BACKBONE|DICT|INTERRES
    45   22  101 1    
    46   23   24 2    
    47   23   25 1    
    48   25   26 1    
    49   25   27 1    
    50   25  102 1    
    51   26  103 1    
    52   26  104 1    
    53   26  105 1    
    54   27   28 am   BACKBONE|DICT|INTERRES
    55   27  106 1    
    56   28   29 2    
    57   28   30 1    
    58   30   31 1    
    59   30   32 1    
    60   30  107 1    
    61   31  108 1    
    62   31  109 1    
    63   31  110 1    
    64   32   33 am   BACKBONE|DICT|INTERRES
    65   32  111 1    
    66   33   34 2    
    67   33   35 1    
    68   35   36 1    
    69   35   37 1    
    70   35  112 1    
    71   36  113 1    
    72   36  114 1    
    73   36  115 1    
    74   37   38 am   BACKBONE|DICT|INTERRES
    75   37  116 1    
    76   38   39 2    
    77   38   40 1    
    78   40   41 1    
    79   40   42 1    
    80   40  117 1    
    81   41  118 1    
    82   41  119 1    
    83   41  120 1    
    84   42   43 am   BACKBONE|DICT|INTERRES
    85   42  121 1    
    86   43   44 2    
    87   43   45 1    
    88   45   46 1    
    89   45   47 1    
    90   45  122 1    
    91   46  123 1    
    92   46  124 1    
    93   46  125 1    
    94   47   48 am   BACKBONE|DICT|INTERRES
    95   47  126 1    
    96   48   49 2    
    97   48   50 1    
    98   50   51 1    
    99   50   52 1    
   100   50  127 1    
   101   51  128 1    
   102   51  129 1    
   103   51  130 1    
   104   52   53 am   BACKBONE|DICT|INTERRES
   105   52  131 1    
   106   53   54 2    
   107   53   55 1    
   108   55   56 1    
   109   55   59 1    
   110   55  132 1    
   111   56   57 1    
   112   56  133 1    
   113   56  134 1    
   114   57   58 1    
   115   58  135 1    
   116   58  136 1    
   117   59   60 am   BACKBONE|DICT|INTERRES
   118   59  137 1    
   119   60   61 2    
   120   60   62 1    
   121   62   63 1    
   122   62   64 1    
   123   62  138 1    
   124   63  139 1    
   125   63  140 1    
   126   63  141 1    
   127   64   65 am   BACKBONE|DICT|INTERRES
   128   64  142 1    
   129   65   66 2    
   130   65   67 1    
   131   67   68 1    
   132   67   69 1    
   133   67  143 1    
   134   68  144 1    
   135   68  145 1    
   136   68  146 1    
   137   69   70 am   BACKBONE|DICT|INTERRES
   138   69  147 1    
   139   70   71 2    
   140   70   72 1    
   141   72   73 1    
   142   72   74 1    
   143   72  148 1    
   144   73  149 1    
   145   73  150 1    
   146   73  151 1    
   147   74   75 am   BACKBONE|DICT|INTERRES
   148   74  152 1    
   149   75   76 2    
   150   75   77 1    
   151   77   78 1    
   152   77   79 1    
   153   77  153 1    
   154   78  154 1    
   155   78  155 1    
   156   78  156 1    
   157   79   80 am   BACKBONE|DICT|INTERRES
   158   79  157 1    
   159   80   81 2    
@<TRIPOS>SUBSTRUCTURE
     1 UNK         1 GROUP             0       ****    0 ROOT    
