@<TRIPOS>MOLECULE
3R207
157   159    1
SMALL
USER_CHARGES


@<TRIPOS>ATOM
      1 CA        -48.4367  -31.6197    4.3206 C.3       0 UNK        -0.1975 
      2 C         -48.2836  -30.7149    5.5345 C.2       0 UNK         0.4852 
      3 O         -47.1616  -30.3453    5.8841 O.2       0 UNK        -0.5216 
      4 N         -49.4028  -30.3488    6.1717 N.am      1 UNK        -0.4461 
      5 CA        -49.4487  -29.5220    7.3828 C.3       1 UNK         0.0864 
      6 C6        -50.8730  -28.9760    7.6558 C.3       14 UNK        -0.0898 
      7 S7        -51.5544  -28.0281    6.2469 S.3       14 UNK        -0.2598 
      8 C8        -51.2581  -26.3010    6.7554 C.3       14 UNK         0.0286 
      9 C9        -52.4593  -25.6464    7.4347 C.ar      14 UNK        -0.0844 
     10 C10       -52.8995  -24.3866    7.0177 C.ar      14 UNK        -0.0881 
     11 C11       -53.9291  -23.7280    7.6997 C.ar      14 UNK        -0.0643 
     12 C12       -54.5536  -24.3619    8.7794 C.ar      14 UNK        -0.0930 
     13 C13       -54.1427  -25.6322    9.1966 C.ar      14 UNK        -0.0827 
     14 C14       -53.0911  -26.2577    8.5203 C.ar      14 UNK        -0.1249 
     15 C15       -54.7924  -26.2786   10.4196 C.3       14 UNK         0.0141 
     16 S16       -55.3215  -28.0063   10.1692 S.3       14 UNK        -0.2313 
     17 C17       -53.7923  -28.9451   10.5170 C.3       14 UNK        -0.0915 
     18 CA        -53.9776  -30.0258   11.6142 C.3       13 UNK         0.0968 
     19 C         -52.8009  -31.0473   11.6285 C.2       13 UNK         0.5732 
     20 N         -52.2352  -31.4185   12.7715 N.am      13 UNK        -0.7310 
     21 O         -52.4011  -31.5365   10.5753 O.2       13 UNK        -0.5035 
     22 N         -54.2369  -29.4226   12.9312 N.am      13 UNK        -0.4233 
     23 C         -55.1262  -29.8888   13.8170 C.2       13 UNK         0.4989 
     24 O         -55.9037  -30.8163   13.5820 O.2       13 UNK        -0.4996 
     25 CA        -55.1377  -29.2143   15.2053 C.3       12 UNK         0.0216 
     26 CB        -55.9171  -30.0268   16.2613 C.3       12 UNK        -0.1964 
     27 N         -53.7983  -28.8805   15.7075 N.am      12 UNK        -0.4276 
     28 C         -52.7566  -29.7126   15.8778 C.2       12 UNK         0.5020 
     29 O         -52.8057  -30.9181   15.6311 O.2       12 UNK        -0.5489 
     30 CA        -51.4212  -29.1096   16.3583 C.3       11 UNK         0.0294 
     31 CB        -50.2645  -29.5332   15.4330 C.3       11 UNK        -0.2019 
     32 N         -51.4671  -27.6479   16.4049 N.am      11 UNK        -0.4493 
     33 C         -51.7049  -26.9075   17.4963 C.2       11 UNK         0.4932 
     34 O         -51.8218  -27.3733   18.6295 O.2       11 UNK        -0.5029 
     35 CA        -51.8740  -25.3900   17.2840 C.3       10 UNK         0.0280 
     36 CB        -50.5657  -24.6537   17.6114 C.3       10 UNK        -0.1976 
     37 N         -52.3054  -25.0443   15.9238 N.am      10 UNK        -0.4242 
     38 C         -53.5110  -25.3518   15.4152 C.2       10 UNK         0.5072 
     39 O         -54.4024  -25.8943   16.0677 O.2       10 UNK        -0.5224 
     40 CA        -53.7424  -25.1031   13.9134 C.3       9 UNK         0.0343 
     41 CB        -54.3987  -23.7349   13.6805 C.3       9 UNK        -0.2003 
     42 N         -52.5126  -25.2016   13.1233 N.am      9 UNK        -0.4272 
     43 C         -51.7757  -26.3180   13.0059 C.2       9 UNK         0.4988 
     44 O         -52.1542  -27.4135   13.4209 O.2       9 UNK        -0.5108 
     45 CA        -50.3730  -26.2120   12.3754 C.3       8 UNK         0.0248 
     46 CB        -50.3399  -26.9246   11.0167 C.3       8 UNK        -0.2001 
     47 N         -49.8813  -24.8426   12.2025 N.am      8 UNK        -0.4140 
     48 C         -49.6912  -23.9426   13.1830 C.2       8 UNK         0.5028 
     49 O         -49.8487  -24.1957   14.3775 O.2       8 UNK        -0.5428 
     50 CA        -49.3504  -22.5013   12.7561 C.3       7 UNK         0.0264 
     51 CB        -47.8322  -22.2761   12.8186 C.3       7 UNK        -0.1988 
     52 N         -49.8449  -22.1780   11.4118 N.am      7 UNK        -0.4454 
     53 C         -51.1391  -22.2203   11.0512 C.2       7 UNK         0.5027 
     54 O         -52.0543  -22.3432   11.8658 O.2       7 UNK        -0.5083 
     55 CA        -51.4816  -22.2369    9.5459 C.3       6 UNK         0.0844 
     56 C56       -52.5052  -21.1359    9.1635 C.3       14 UNK        -0.0967 
     57 S57       -52.9384  -21.1356    7.3849 S.3       14 UNK        -0.2604 
     58 C58       -54.3334  -22.3129    7.3028 C.3       14 UNK         0.0134 
     59 N         -50.3180  -22.2793    8.6516 N.am      6 UNK        -0.4116 
     60 C         -49.4881  -23.3223    8.5176 C.2       5 UNK         0.5034 
     61 O         -49.5473  -24.3262    9.2307 O.2       5 UNK        -0.5045 
     62 CA        -48.4212  -23.2416    7.4063 C.3       5 UNK         0.0224 
     63 CB        -48.2107  -21.8214    6.8312 C.3       5 UNK        -0.1978 
     64 N         -47.1391  -23.8213    7.8232 N.am      5 UNK        -0.4737 
     65 C         -46.3843  -23.4437    8.8636 C.2       4 UNK         0.5027 
     66 O         -46.6634  -22.5149    9.6245 O.2       4 UNK        -0.5211 
     67 CA        -45.0871  -24.2426    9.0831 C.3       4 UNK         0.0297 
     68 CB        -43.8766  -23.3045    9.2298 C.3       4 UNK        -0.1993 
     69 N         -45.1717  -25.1100   10.2592 N.am      4 UNK        -0.4486 
     70 C         -45.9935  -26.1601   10.3798 C.2       3 UNK         0.4961 
     71 O         -46.7682  -26.5312    9.4921 O.2       3 UNK        -0.5105 
     72 CA        -45.9236  -26.9295   11.7147 C.3       3 UNK         0.0299 
     73 CB        -46.3517  -26.0475   12.8999 C.3       3 UNK        -0.1972 
     74 N         -46.7935  -28.1044   11.6602 N.am      3 UNK        -0.4305 
     75 C         -46.4586  -29.2652   11.0836 C.2       2 UNK         0.5006 
     76 O         -45.3109  -29.5783   10.7648 O.2       2 UNK        -0.5106 
     77 CA        -47.6236  -30.1844   10.7140 C.3       2 UNK         0.0296 
     78 CB        -48.6403  -30.3839   11.8587 C.3       2 UNK        -0.2002 
     79 N         -48.2628  -29.6106    9.5303 N.am      2 UNK        -0.4032 
     80 C         -48.9250  -30.3118    8.6031 C.2       1 UNK         0.5000 
     81 O         -49.1396  -31.5249    8.6850 O.2       1 UNK        -0.5238 
     82 H82       -47.9037  -32.5564    4.4818 H         1 UNK         0.0889 
     83 H83       -48.0191  -31.1369    3.4375 H         1 UNK         0.0889 
     84 H84       -49.4812  -31.8547    4.1164 H         1 UNK         0.0889 
     85 H85       -50.2963  -30.6887    5.8467 H         1 UNK         0.3028 
     86 H86       -48.7849  -28.6688    7.2231 H         1 UNK         0.0864 
     87 H87       -51.5615  -29.7955    7.8720 H         1 UNK         0.0720 
     88 H88       -50.8650  -28.3474    8.5458 H         1 UNK         0.0720 
     89 H89       -50.3964  -26.2515    7.4223 H         1 UNK         0.0814 
     90 H90       -50.9803  -25.7377    5.8634 H         1 UNK         0.0814 
     91 H91       -52.4092  -23.8890    6.1921 H         1 UNK         0.1469 
     92 H92       -55.3441  -23.8523    9.3132 H         1 UNK         0.1381 
     93 H93       -52.7493  -27.2242    8.8438 H         1 UNK         0.1206 
     94 H94       -55.6679  -25.7053   10.7278 H         1 UNK         0.0813 
     95 H95       -54.0966  -26.2357   11.2515 H         1 UNK         0.0813 
     96 H96       -53.4869  -29.3967    9.5716 H         1 UNK         0.0638 
     97 H97       -52.9911  -28.2667   10.8069 H         1 UNK         0.0638 
     98 H98       -54.8447  -30.6195   11.3205 H         1 UNK         0.0568 
     99 H99       -52.5775  -31.0928   13.6687 H         1 UNK         0.3450 
    100 H100      -51.4886  -32.0926   12.7421 H         1 UNK         0.3450 
    101 H101      -53.5908  -28.6900   13.2114 H         1 UNK         0.2987 
    102 H102      -55.6576  -28.2645   15.0714 H         1 UNK         0.0766 
    103 H103      -55.9374  -29.5115   17.2216 H         1 UNK         0.0798 
    104 H104      -56.9529  -30.1782   15.9552 H         1 UNK         0.0798 
    105 H105      -55.4760  -31.0118   16.4184 H         1 UNK         0.0798 
    106 H106      -53.6634  -27.9019   15.9326 H         1 UNK         0.3198 
    107 H107      -51.2254  -29.5097   17.3553 H         1 UNK         0.0843 
    108 H108      -50.1401  -30.6169   15.4320 H         1 UNK         0.0831 
    109 H109      -49.3172  -29.1018   15.7565 H         1 UNK         0.0831 
    110 H110      -50.4381  -29.2281   14.4007 H         1 UNK         0.0831 
    111 H111      -51.4196  -27.1842   15.5070 H         1 UNK         0.3133 
    112 H112      -52.6422  -25.0426   17.9781 H         1 UNK         0.0566 
    113 H113      -49.7472  -24.9790   16.9679 H         1 UNK         0.0814 
    114 H114      -50.2616  -24.8392   18.6425 H         1 UNK         0.0814 
    115 H115      -50.6751  -23.5754   17.4946 H         1 UNK         0.0814 
    116 H116      -51.6010  -24.6285   15.3199 H         1 UNK         0.3091 
    117 H117      -54.4305  -25.8747   13.5625 H         1 UNK         0.0702 
    118 H118      -54.6208  -23.5765   12.6248 H         1 UNK         0.0785 
    119 H119      -53.7567  -22.9181   14.0128 H         1 UNK         0.0785 
    120 H120      -55.3398  -23.6548   14.2262 H         1 UNK         0.0785 
    121 H121      -52.1568  -24.3340   12.7388 H         1 UNK         0.2998 
    122 H122      -49.6857  -26.7240   13.0514 H         1 UNK         0.0697 
    123 H123      -51.0025  -26.4358   10.3040 H         1 UNK         0.0825 
    124 H124      -50.6557  -27.9644   11.1024 H         1 UNK         0.0825 
    125 H125      -49.3398  -26.9165   10.5849 H         1 UNK         0.0825 
    126 H126      -49.7293  -24.5482   11.2414 H         1 UNK         0.3029 
    127 H127      -49.8333  -21.8233   13.4629 H         1 UNK         0.0897 
    128 H128      -47.5661  -21.2592   12.5296 H         1 UNK         0.0792 
    129 H129      -47.4576  -22.4348   13.8308 H         1 UNK         0.0792 
    130 H130      -47.2952  -22.9631   12.1638 H         1 UNK         0.0792 
    131 H131      -49.1474  -22.0953   10.6839 H         1 UNK         0.3086 
    132 H132      -51.9841  -23.1949    9.4179 H         1 UNK         0.0583 
    133 H133      -53.4213  -21.2452    9.7478 H         1 UNK         0.1020 
    134 H134      -52.1072  -20.1502    9.4108 H         1 UNK         0.1020 
    135 H135      -55.1453  -21.9451    7.9321 H         1 UNK         0.0694 
    136 H136      -54.7188  -22.3307    6.2825 H         1 UNK         0.0694 
    137 H137      -50.2071  -21.4881    8.0348 H         1 UNK         0.2989 
    138 H138      -48.7924  -23.8738    6.5983 H         1 UNK         0.1055 
    139 H139      -47.4324  -21.8210    6.0679 H         1 UNK         0.0806 
    140 H140      -47.9144  -21.1073    7.6008 H         1 UNK         0.0806 
    141 H141      -49.1158  -21.4439    6.3534 H         1 UNK         0.0806 
    142 H142      -46.8533  -24.6487    7.3176 H         1 UNK         0.3061 
    143 H143      -44.9121  -24.8765    8.2108 H         1 UNK         0.0734 
    144 H144      -43.7879  -22.6469    8.3639 H         1 UNK         0.0832 
    145 H145      -43.9605  -22.6688   10.1123 H         1 UNK         0.0832 
    146 H146      -42.9448  -23.8652    9.3060 H         1 UNK         0.0832 
    147 H147      -44.5839  -24.8621   11.0416 H         1 UNK         0.3156 
    148 H148      -44.8913  -27.2487   11.8731 H         1 UNK         0.0589 
    149 H149      -47.3512  -25.6435   12.7578 H         1 UNK         0.0808 
    150 H150      -46.3489  -26.6095   13.8341 H         1 UNK         0.0808 
    151 H151      -45.6762  -25.2022   13.0342 H         1 UNK         0.0808 
    152 H152      -47.7673  -27.9408   11.8607 H         1 UNK         0.3098 
    153 H153      -47.1988  -31.1574   10.4567 H         1 UNK         0.0720 
    154 H154      -49.4026  -31.1115   11.5796 H         1 UNK         0.0791 
    155 H155      -48.1480  -30.7627   12.7553 H         1 UNK         0.0791 
    156 H156      -49.1540  -29.4635   12.1318 H         1 UNK         0.0791 
    157 H157      -48.0602  -28.6322    9.3594 H         1 UNK         0.3028 
@<TRIPOS>BOND
     1    1    2 1    
     2    1   82 1    
     3    1   83 1    
     4    1   84 1    
     5    2    3 2    
     6    2    4 am   BACKBONE|DICT|INTERRES
     7    4    5 1    
     8    4   85 1    
     9    5    6 1    
    10    5   80 1    
    11    5   86 1    
    12    6    7 1    
    13    6   87 1    
    14    6   88 1    
    15    7    8 1    
    16    8    9 1    
    17    8   89 1    
    18    8   90 1    
    19    9   10 ar   
    20    9   14 ar   
    21   10   11 ar   
    22   10   91 1    
    23   11   12 ar   
    24   11   58 1    
    25   12   13 ar   
    26   12   92 1    
    27   13   14 ar   
    28   13   15 1    
    29   14   93 1    
    30   15   16 1    
    31   15   94 1    
    32   15   95 1    
    33   16   17 1    
    34   17   18 1    
    35   17   96 1    
    36   17   97 1    
    37   18   19 1    
    38   18   22 1    
    39   18   98 1    
    40   19   20 am   BACKBONE|DICT|INTERRES
    41   19   21 2    
    42   20   99 1    
    43   20  100 1    
    44   22   23 am   BACKBONE|DICT|INTERRES
    45   22  101 1    
    46   23   24 2    
    47   23   25 1    
    48   25   26 1    
    49   25   27 1    
    50   25  102 1    
    51   26  103 1    
    52   26  104 1    
    53   26  105 1    
    54   27   28 am   BACKBONE|DICT|INTERRES
    55   27  106 1    
    56   28   29 2    
    57   28   30 1    
    58   30   31 1    
    59   30   32 1    
    60   30  107 1    
    61   31  108 1    
    62   31  109 1    
    63   31  110 1    
    64   32   33 am   BACKBONE|DICT|INTERRES
    65   32  111 1    
    66   33   34 2    
    67   33   35 1    
    68   35   36 1    
    69   35   37 1    
    70   35  112 1    
    71   36  113 1    
    72   36  114 1    
    73   36  115 1    
    74   37   38 am   BACKBONE|DICT|INTERRES
    75   37  116 1    
    76   38   39 2    
    77   38   40 1    
    78   40   41 1    
    79   40   42 1    
    80   40  117 1    
    81   41  118 1    
    82   41  119 1    
    83   41  120 1    
    84   42   43 am   BACKBONE|DICT|INTERRES
    85   42  121 1    
    86   43   44 2    
    87   43   45 1    
    88   45   46 1    
    89   45   47 1    
    90   45  122 1    
    91   46  123 1    
    92   46  124 1    
    93   46  125 1    
    94   47   48 am   BACKBONE|DICT|INTERRES
    95   47  126 1    
    96   48   49 2    
    97   48   50 1    
    98   50   51 1    
    99   50   52 1    
   100   50  127 1    
   101   51  128 1    
   102   51  129 1    
   103   51  130 1    
   104   52   53 am   BACKBONE|DICT|INTERRES
   105   52  131 1    
   106   53   54 2    
   107   53   55 1    
   108   55   56 1    
   109   55   59 1    
   110   55  132 1    
   111   56   57 1    
   112   56  133 1    
   113   56  134 1    
   114   57   58 1    
   115   58  135 1    
   116   58  136 1    
   117   59   60 am   BACKBONE|DICT|INTERRES
   118   59  137 1    
   119   60   61 2    
   120   60   62 1    
   121   62   63 1    
   122   62   64 1    
   123   62  138 1    
   124   63  139 1    
   125   63  140 1    
   126   63  141 1    
   127   64   65 am   BACKBONE|DICT|INTERRES
   128   64  142 1    
   129   65   66 2    
   130   65   67 1    
   131   67   68 1    
   132   67   69 1    
   133   67  143 1    
   134   68  144 1    
   135   68  145 1    
   136   68  146 1    
   137   69   70 am   BACKBONE|DICT|INTERRES
   138   69  147 1    
   139   70   71 2    
   140   70   72 1    
   141   72   73 1    
   142   72   74 1    
   143   72  148 1    
   144   73  149 1    
   145   73  150 1    
   146   73  151 1    
   147   74   75 am   BACKBONE|DICT|INTERRES
   148   74  152 1    
   149   75   76 2    
   150   75   77 1    
   151   77   78 1    
   152   77   79 1    
   153   77  153 1    
   154   78  154 1    
   155   78  155 1    
   156   78  156 1    
   157   79   80 am   BACKBONE|DICT|INTERRES
   158   79  157 1    
   159   80   81 2    
@<TRIPOS>SUBSTRUCTURE
     1 UNK         1 GROUP             0       ****    0 ROOT    
