@<TRIPOS>MOLECULE
3R207
157   159    1
SMALL
USER_CHARGES


@<TRIPOS>ATOM
      1 CA        -49.5541  -30.7266    2.7866 C.3       0 UNK        -0.1975 
      2 C         -49.7725  -29.5944    3.7792 C.2       0 UNK         0.4852 
      3 O         -50.7509  -28.8566    3.6592 O.2       0 UNK        -0.5216 
      4 N         -48.8657  -29.4494    4.7553 N.am      1 UNK        -0.4461 
      5 CA        -48.9240  -28.4310    5.8128 C.3       1 UNK         0.0864 
      6 C6        -47.9776  -28.7770    6.9912 C.3       14 UNK        -0.0898 
      7 S7        -48.5566  -30.2244    7.9379 S.3       14 UNK        -0.2598 
      8 C8        -49.2211  -29.4438    9.4467 C.3       14 UNK         0.0286 
      9 C9        -50.6023  -28.8407    9.2260 C.ar      14 UNK        -0.0844 
     10 C10       -50.7373  -27.5708    8.6587 C.ar      14 UNK        -0.0881 
     11 C11       -51.9984  -26.9986    8.4760 C.ar      14 UNK        -0.0643 
     12 C12       -53.1351  -27.7000    8.8886 C.ar      14 UNK        -0.0930 
     13 C13       -53.0162  -28.9697    9.4625 C.ar      14 UNK        -0.0827 
     14 C14       -51.7486  -29.5399    9.6170 C.ar      14 UNK        -0.1249 
     15 C15       -54.2573  -29.7254    9.9120 C.3       14 UNK         0.0141 
     16 S16       -54.6951  -29.3097   11.6276 S.3       14 UNK        -0.2313 
     17 C17       -56.1568  -30.3709   11.8663 C.3       14 UNK        -0.0915 
     18 CA        -57.0375  -29.9324   13.0676 C.3       13 UNK         0.0968 
     19 C         -58.3814  -30.7197   13.0695 C.2       13 UNK         0.5732 
     20 N         -58.6331  -31.6111   14.0214 N.am      13 UNK        -0.7310 
     21 O         -59.2141  -30.5126   12.1898 O.2       13 UNK        -0.5035 
     22 N         -56.2931  -29.9787   14.3391 N.am      13 UNK        -0.4233 
     23 C         -56.6844  -29.3959   15.4807 C.2       13 UNK         0.4989 
     24 O         -57.7092  -28.7202   15.5848 O.2       13 UNK        -0.4996 
     25 CA        -55.7990  -29.5931   16.7227 C.3       12 UNK         0.0216 
     26 CB        -54.7590  -30.7251   16.5852 C.3       12 UNK        -0.1964 
     27 N         -55.1035  -28.3376   16.9816 N.am      12 UNK        -0.4276 
     28 C         -55.3044  -27.5223   18.0254 C.2       12 UNK         0.5020 
     29 O         -56.0639  -27.7817   18.9604 O.2       12 UNK        -0.5489 
     30 CA        -54.5265  -26.1889   18.0478 C.3       11 UNK         0.0294 
     31 CB        -53.3399  -26.2771   19.0209 C.3       11 UNK        -0.2019 
     32 N         -54.0356  -25.7780   16.7289 N.am      11 UNK        -0.4493 
     33 C         -54.8231  -25.3604   15.7253 C.2       11 UNK         0.4932 
     34 O         -56.0265  -25.1370   15.8593 O.2       11 UNK        -0.5029 
     35 CA        -54.1887  -25.1848   14.3298 C.3       10 UNK         0.0280 
     36 CB        -53.9914  -23.6914   14.0219 C.3       10 UNK        -0.1976 
     37 N         -52.9195  -25.8928   14.1194 N.am      10 UNK        -0.4242 
     38 C         -52.7102  -27.2075   14.2896 C.2       10 UNK         0.5072 
     39 O         -53.5866  -27.9993   14.6324 O.2       10 UNK        -0.5224 
     40 CA        -51.2719  -27.7258   14.1303 C.3       9 UNK         0.0343 
     41 CB        -51.0306  -28.2075   12.6949 C.3       9 UNK        -0.2003 
     42 N         -50.2386  -26.7581   14.5108 N.am      9 UNK        -0.4272 
     43 C         -50.0959  -26.2249   15.7345 C.2       9 UNK         0.4988 
     44 O         -50.8601  -26.4479   16.6741 O.2       9 UNK        -0.5108 
     45 CA        -48.9130  -25.2666   15.9357 C.3       8 UNK         0.0248 
     46 CB        -47.5842  -26.0366   16.0178 C.3       8 UNK        -0.2001 
     47 N         -48.8504  -24.2808   14.8581 N.am      8 UNK        -0.4140 
     48 C         -49.5951  -23.1673   14.8117 C.2       8 UNK         0.5028 
     49 O         -50.3297  -22.7928   15.7264 O.2       8 UNK        -0.5428 
     50 CA        -49.5290  -22.3372   13.5171 C.3       7 UNK         0.0264 
     51 CB        -48.4564  -21.2423   13.6297 C.3       7 UNK        -0.1988 
     52 N         -49.2845  -23.1485   12.3192 N.am      7 UNK        -0.4454 
     53 C         -50.1564  -24.0520   11.8405 C.2       7 UNK         0.5027 
     54 O         -51.2359  -24.2936   12.3794 O.2       7 UNK        -0.5083 
     55 CA        -49.7398  -24.8708   10.5974 C.3       6 UNK         0.0844 
     56 C56       -50.1783  -24.1864    9.2787 C.3       14 UNK        -0.0967 
     57 S57       -51.9831  -24.2662    9.0002 S.3       14 UNK        -0.2604 
     58 C58       -52.1344  -25.6358    7.8107 C.3       14 UNK         0.0134 
     59 N         -48.3130  -25.2034   10.5810 N.am      6 UNK        -0.4116 
     60 C         -47.6615  -25.8601   11.5542 C.2       5 UNK         0.5034 
     61 O         -48.2148  -26.3420   12.5423 O.2       5 UNK        -0.5045 
     62 CA        -46.1274  -25.9448   11.4510 C.3       5 UNK         0.0224 
     63 CB        -45.7151  -27.3007   10.8557 C.3       5 UNK        -0.1978 
     64 N         -45.5139  -24.8683   10.6648 N.am      5 UNK        -0.4737 
     65 C         -45.6800  -23.5499   10.8542 C.2       4 UNK         0.5027 
     66 O         -46.3182  -23.0713   11.7912 O.2       4 UNK        -0.5211 
     67 CA        -45.0998  -22.6071    9.7828 C.3       4 UNK         0.0297 
     68 CB        -43.8078  -21.9509   10.2946 C.3       4 UNK        -0.1993 
     69 N         -44.8398  -23.2430    8.4831 N.am      4 UNK        -0.4486 
     70 C         -45.7483  -23.8600    7.7137 C.2       3 UNK         0.4961 
     71 O         -46.9391  -23.9871    8.0154 O.2       3 UNK        -0.5105 
     72 CA        -45.2079  -24.4969    6.4287 C.3       3 UNK         0.0299 
     73 CB        -44.3776  -25.7556    6.7536 C.3       3 UNK        -0.1972 
     74 N         -46.3247  -24.8565    5.5625 N.am      3 UNK        -0.4305 
     75 C         -46.2590  -25.0963    4.2489 C.2       2 UNK         0.5006 
     76 O         -45.2237  -24.9932    3.5877 O.2       2 UNK        -0.5106 
     77 CA        -47.5621  -25.5745    3.5770 C.3       2 UNK         0.0296 
     78 CB        -47.4269  -25.7238    2.0496 C.3       2 UNK        -0.2002 
     79 N         -48.0020  -26.8538    4.1408 N.am      2 UNK        -0.4032 
     80 C         -48.6371  -26.9993    5.3125 C.2       1 UNK         0.5000 
     81 O         -48.9641  -26.0448    6.0200 O.2       1 UNK        -0.5238 
     82 H82       -48.6528  -31.2973    3.0096 H         1 UNK         0.0889 
     83 H83       -49.4622  -30.3280    1.7766 H         1 UNK         0.0889 
     84 H84       -50.4018  -31.4111    2.8071 H         1 UNK         0.0889 
     85 H85       -48.0964  -30.1015    4.8190 H         1 UNK         0.3028 
     86 H86       -49.9498  -28.4156    6.1855 H         1 UNK         0.0864 
     87 H87       -46.9719  -28.9869    6.6226 H         1 UNK         0.0720 
     88 H88       -47.8615  -27.9356    7.6769 H         1 UNK         0.0720 
     89 H89       -49.2706  -30.1998   10.2319 H         1 UNK         0.0814 
     90 H90       -48.5318  -28.6821    9.8141 H         1 UNK         0.0814 
     91 H91       -49.8587  -27.0211    8.3561 H         1 UNK         0.1469 
     92 H92       -54.1140  -27.2580    8.7623 H         1 UNK         0.1381 
     93 H93       -51.6539  -30.5208   10.0625 H         1 UNK         0.1206 
     94 H94       -54.0927  -30.8010    9.8309 H         1 UNK         0.0813 
     95 H95       -55.0958  -29.4903    9.2546 H         1 UNK         0.0813 
     96 H96       -55.8214  -31.4019   11.9917 H         1 UNK         0.0638 
     97 H97       -56.7386  -30.3468   10.9426 H         1 UNK         0.0638 
     98 H98       -57.3120  -28.8885   12.9033 H         1 UNK         0.0568 
     99 H99       -59.5089  -32.1095   14.0105 H         1 UNK         0.3450 
    100 H100      -57.9577  -31.7923   14.7456 H         1 UNK         0.3450 
    101 H101      -55.4171  -30.4785   14.3221 H         1 UNK         0.2987 
    102 H102      -56.4645  -29.8445   17.5510 H         1 UNK         0.0766 
    103 H103      -54.2172  -30.8664   17.5206 H         1 UNK         0.0798 
    104 H104      -54.0191  -30.5167   15.8110 H         1 UNK         0.0798 
    105 H105      -55.2371  -31.6766   16.3485 H         1 UNK         0.0798 
    106 H106      -54.4956  -28.0269   16.2241 H         1 UNK         0.3198 
    107 H107      -55.2097  -25.4181   18.4111 H         1 UNK         0.0843 
    108 H108      -52.8031  -25.3303   19.0822 H         1 UNK         0.0831 
    109 H109      -52.6286  -27.0471   18.7194 H         1 UNK         0.0831 
    110 H110      -53.6789  -26.5237   20.0280 H         1 UNK         0.0831 
    111 H111      -53.0505  -25.9313   16.5438 H         1 UNK         0.3133 
    112 H112      -54.9002  -25.5902   13.6078 H         1 UNK         0.0566 
    113 H113      -53.7208  -23.5352   12.9777 H         1 UNK         0.0814 
    114 H114      -54.9067  -23.1256   14.2014 H         1 UNK         0.0814 
    115 H115      -53.2075  -23.2533   14.6416 H         1 UNK         0.0814 
    116 H116      -52.1529  -25.3325   13.7558 H         1 UNK         0.3091 
    117 H117      -51.1613  -28.5847   14.7954 H         1 UNK         0.0702 
    118 H118      -51.7015  -29.0318   12.4518 H         1 UNK         0.0785 
    119 H119      -50.0111  -28.5660   12.5528 H         1 UNK         0.0785 
    120 H120      -51.2176  -27.4172   11.9687 H         1 UNK         0.0785 
    121 H121      -49.5455  -26.5382   13.7987 H         1 UNK         0.2998 
    122 H122      -49.0575  -24.7477   16.8860 H         1 UNK         0.0697 
    123 H123      -47.3673  -26.5826   15.0992 H         1 UNK         0.0825 
    124 H124      -47.6077  -26.7644   16.8300 H         1 UNK         0.0825 
    125 H125      -46.7489  -25.3636   16.2115 H         1 UNK         0.0825 
    126 H126      -48.3020  -24.5263   14.0454 H         1 UNK         0.3029 
    127 H127      -50.4992  -21.8505   13.3938 H         1 UNK         0.0897 
    128 H128      -48.4252  -20.6212   12.7344 H         1 UNK         0.0792 
    129 H129      -48.6613  -20.5833   14.4746 H         1 UNK         0.0792 
    130 H130      -47.4621  -21.6640   13.7810 H         1 UNK         0.0792 
    131 H131      -48.3730  -23.0496   11.8824 H         1 UNK         0.3086 
    132 H132      -50.2614  -25.8239   10.6714 H         1 UNK         0.0583 
    133 H133      -49.8643  -23.1408    9.2607 H         1 UNK         0.1020 
    134 H134      -49.6765  -24.6468    8.4260 H         1 UNK         0.1020 
    135 H135      -53.1077  -25.5618    7.3232 H         1 UNK         0.0694 
    136 H136      -51.3960  -25.5231    7.0162 H         1 UNK         0.0694 
    137 H137      -47.7735  -24.8311    9.8070 H         1 UNK         0.2989 
    138 H138      -45.7336  -25.8745   12.4672 H         1 UNK         0.1055 
    139 H139      -46.1409  -28.1253   11.4298 H         1 UNK         0.0806 
    140 H140      -44.6324  -27.4277   10.8674 H         1 UNK         0.0806 
    141 H141      -46.0561  -27.4114    9.8253 H         1 UNK         0.0806 
    142 H142      -44.9678  -25.1527    9.8652 H         1 UNK         0.3061 
    143 H143      -45.8403  -21.8218    9.6175 H         1 UNK         0.0734 
    144 H144      -43.4376  -21.2007    9.5957 H         1 UNK         0.0832 
    145 H145      -43.9776  -21.4456   11.2467 H         1 UNK         0.0832 
    146 H146      -43.0168  -22.6850   10.4531 H         1 UNK         0.0832 
    147 H147      -43.8858  -23.2015    8.1524 H         1 UNK         0.3156 
    148 H148      -44.5828  -23.7610    5.9186 H         1 UNK         0.0589 
    149 H149      -44.9781  -26.5127    7.2601 H         1 UNK         0.0808 
    150 H150      -43.9686  -26.2075    5.8498 H         1 UNK         0.0808 
    151 H151      -43.5314  -25.5212    7.4002 H         1 UNK         0.0808 
    152 H152      -47.2214  -24.9453    6.0365 H         1 UNK         0.3098 
    153 H153      -48.3258  -24.8178    3.7699 H         1 UNK         0.0720 
    154 H154      -48.3743  -26.0141    1.5950 H         1 UNK         0.0791 
    155 H155      -46.6816  -26.4729    1.7792 H         1 UNK         0.0791 
    156 H156      -47.1245  -24.7815    1.5907 H         1 UNK         0.0791 
    157 H157      -47.7404  -27.6873    3.6351 H         1 UNK         0.3028 
@<TRIPOS>BOND
     1    1    2 1    
     2    1   82 1    
     3    1   83 1    
     4    1   84 1    
     5    2    3 2    
     6    2    4 am   BACKBONE|DICT|INTERRES
     7    4    5 1    
     8    4   85 1    
     9    5    6 1    
    10    5   80 1    
    11    5   86 1    
    12    6    7 1    
    13    6   87 1    
    14    6   88 1    
    15    7    8 1    
    16    8    9 1    
    17    8   89 1    
    18    8   90 1    
    19    9   10 ar   
    20    9   14 ar   
    21   10   11 ar   
    22   10   91 1    
    23   11   12 ar   
    24   11   58 1    
    25   12   13 ar   
    26   12   92 1    
    27   13   14 ar   
    28   13   15 1    
    29   14   93 1    
    30   15   16 1    
    31   15   94 1    
    32   15   95 1    
    33   16   17 1    
    34   17   18 1    
    35   17   96 1    
    36   17   97 1    
    37   18   19 1    
    38   18   22 1    
    39   18   98 1    
    40   19   20 am   BACKBONE|DICT|INTERRES
    41   19   21 2    
    42   20   99 1    
    43   20  100 1    
    44   22   23 am   BACKBONE|DICT|INTERRES
    45   22  101 1    
    46   23   24 2    
    47   23   25 1    
    48   25   26 1    
    49   25   27 1    
    50   25  102 1    
    51   26  103 1    
    52   26  104 1    
    53   26  105 1    
    54   27   28 am   BACKBONE|DICT|INTERRES
    55   27  106 1    
    56   28   29 2    
    57   28   30 1    
    58   30   31 1    
    59   30   32 1    
    60   30  107 1    
    61   31  108 1    
    62   31  109 1    
    63   31  110 1    
    64   32   33 am   BACKBONE|DICT|INTERRES
    65   32  111 1    
    66   33   34 2    
    67   33   35 1    
    68   35   36 1    
    69   35   37 1    
    70   35  112 1    
    71   36  113 1    
    72   36  114 1    
    73   36  115 1    
    74   37   38 am   BACKBONE|DICT|INTERRES
    75   37  116 1    
    76   38   39 2    
    77   38   40 1    
    78   40   41 1    
    79   40   42 1    
    80   40  117 1    
    81   41  118 1    
    82   41  119 1    
    83   41  120 1    
    84   42   43 am   BACKBONE|DICT|INTERRES
    85   42  121 1    
    86   43   44 2    
    87   43   45 1    
    88   45   46 1    
    89   45   47 1    
    90   45  122 1    
    91   46  123 1    
    92   46  124 1    
    93   46  125 1    
    94   47   48 am   BACKBONE|DICT|INTERRES
    95   47  126 1    
    96   48   49 2    
    97   48   50 1    
    98   50   51 1    
    99   50   52 1    
   100   50  127 1    
   101   51  128 1    
   102   51  129 1    
   103   51  130 1    
   104   52   53 am   BACKBONE|DICT|INTERRES
   105   52  131 1    
   106   53   54 2    
   107   53   55 1    
   108   55   56 1    
   109   55   59 1    
   110   55  132 1    
   111   56   57 1    
   112   56  133 1    
   113   56  134 1    
   114   57   58 1    
   115   58  135 1    
   116   58  136 1    
   117   59   60 am   BACKBONE|DICT|INTERRES
   118   59  137 1    
   119   60   61 2    
   120   60   62 1    
   121   62   63 1    
   122   62   64 1    
   123   62  138 1    
   124   63  139 1    
   125   63  140 1    
   126   63  141 1    
   127   64   65 am   BACKBONE|DICT|INTERRES
   128   64  142 1    
   129   65   66 2    
   130   65   67 1    
   131   67   68 1    
   132   67   69 1    
   133   67  143 1    
   134   68  144 1    
   135   68  145 1    
   136   68  146 1    
   137   69   70 am   BACKBONE|DICT|INTERRES
   138   69  147 1    
   139   70   71 2    
   140   70   72 1    
   141   72   73 1    
   142   72   74 1    
   143   72  148 1    
   144   73  149 1    
   145   73  150 1    
   146   73  151 1    
   147   74   75 am   BACKBONE|DICT|INTERRES
   148   74  152 1    
   149   75   76 2    
   150   75   77 1    
   151   77   78 1    
   152   77   79 1    
   153   77  153 1    
   154   78  154 1    
   155   78  155 1    
   156   78  156 1    
   157   79   80 am   BACKBONE|DICT|INTERRES
   158   79  157 1    
   159   80   81 2    
@<TRIPOS>SUBSTRUCTURE
     1 UNK         1 GROUP             0       ****    0 ROOT    
