@<TRIPOS>MOLECULE
3R207
157   159    1
SMALL
USER_CHARGES


@<TRIPOS>ATOM
      1 CA        -45.2638  -28.0242    4.4899 C.3       0 UNK        -0.1975 
      2 C         -46.7426  -27.8547    4.1771 C.2       0 UNK         0.4852 
      3 O         -47.0910  -27.0490    3.3149 O.2       0 UNK        -0.5216 
      4 N         -47.6085  -28.6116    4.8659 N.am      1 UNK        -0.4461 
      5 CA        -49.0681  -28.5551    4.7367 C.3       1 UNK         0.0864 
      6 C6        -49.7218  -29.8489    5.2815 C.3       14 UNK        -0.0898 
      7 S7        -51.5282  -29.9248    5.0329 S.3       14 UNK        -0.2598 
      8 C8        -52.0690  -30.8110    6.5298 C.3       14 UNK         0.0286 
      9 C9        -51.9843  -29.9430    7.7777 C.ar      14 UNK        -0.0844 
     10 C10       -50.9017  -30.0637    8.6547 C.ar      14 UNK        -0.0881 
     11 C11       -50.8296  -29.2731    9.8040 C.ar      14 UNK        -0.0643 
     12 C12       -51.8626  -28.3766   10.0910 C.ar      14 UNK        -0.0930 
     13 C13       -52.9600  -28.2612    9.2339 C.ar      14 UNK        -0.0827 
     14 C14       -53.0074  -29.0368    8.0710 C.ar      14 UNK        -0.1249 
     15 C15       -54.0928  -27.2975    9.5619 C.3       14 UNK         0.0141 
     16 S16       -55.6655  -28.1694    9.8508 S.3       14 UNK        -0.2313 
     17 C17       -55.2887  -29.1256   11.3595 C.3       14 UNK        -0.0915 
     18 CA        -56.4505  -29.0842   12.3873 C.3       13 UNK         0.0968 
     19 C         -56.2139  -30.0693   13.5701 C.2       13 UNK         0.5732 
     20 N         -56.3159  -29.6582   14.8298 N.am      13 UNK        -0.7310 
     21 O         -55.9499  -31.2473   13.3416 O.2       13 UNK        -0.5035 
     22 N         -56.7390  -27.7095   12.8190 N.am      13 UNK        -0.4233 
     23 C         -57.9609  -27.2277   13.0817 C.2       13 UNK         0.4989 
     24 O         -58.9990  -27.8682   12.9044 O.2       13 UNK        -0.4996 
     25 CA        -58.0376  -25.7886   13.6408 C.3       12 UNK         0.0216 
     26 CB        -59.3313  -25.5308   14.4436 C.3       12 UNK        -0.1964 
     27 N         -56.8572  -25.3974   14.4255 N.am      12 UNK        -0.4276 
     28 C         -56.3750  -26.0203   15.5099 C.2       12 UNK         0.5020 
     29 O         -56.8996  -27.0030   16.0402 O.2       12 UNK        -0.5489 
     30 CA        -55.0390  -25.4962   16.0557 C.3       11 UNK         0.0294 
     31 CB        -55.2105  -24.9006   17.4620 C.3       11 UNK        -0.2019 
     32 N         -54.0355  -26.5599   16.0980 N.am      11 UNK        -0.4493 
     33 C         -53.5945  -27.2598   15.0444 C.2       11 UNK         0.4932 
     34 O         -53.9782  -27.0744   13.8869 O.2       11 UNK        -0.5029 
     35 CA        -52.5277  -28.3276   15.3472 C.3       10 UNK         0.0280 
     36 CB        -52.1376  -29.1468   14.1031 C.3       10 UNK        -0.1976 
     37 N         -51.3238  -27.7148   15.9111 N.am      10 UNK        -0.4242 
     38 C         -51.1622  -27.3422   17.1887 C.2       10 UNK         0.5072 
     39 O         -52.0147  -27.5102   18.0621 O.2       10 UNK        -0.5224 
     40 CA        -49.8531  -26.6196   17.5345 C.3       9 UNK         0.0343 
     41 CB        -48.6562  -27.5847   17.4900 C.3       9 UNK        -0.2003 
     42 N         -49.6299  -25.5106   16.6075 N.am      9 UNK        -0.4272 
     43 C         -50.0666  -24.2566   16.7986 C.2       9 UNK         0.4988 
     44 O         -50.6148  -23.8694   17.8310 O.2       9 UNK        -0.5108 
     45 CA        -49.8684  -23.2628   15.6380 C.3       8 UNK         0.0248 
     46 CB        -48.5170  -22.5429   15.7694 C.3       8 UNK        -0.2001 
     47 N         -49.9585  -23.9146   14.3282 N.am      8 UNK        -0.4140 
     48 C         -51.1042  -24.3914   13.8142 C.2       8 UNK         0.5028 
     49 O         -52.2064  -24.1671   14.3126 O.2       8 UNK        -0.5428 
     50 CA        -51.0294  -25.2833   12.5578 C.3       7 UNK         0.0264 
     51 CB        -51.6003  -24.5554   11.3305 C.3       7 UNK        -0.1988 
     52 N         -49.6876  -25.7727   12.2328 N.am      7 UNK        -0.4454 
     53 C         -48.9355  -26.5857   12.9910 C.2       7 UNK         0.5027 
     54 O         -49.3195  -27.0685   14.0562 O.2       7 UNK        -0.5083 
     55 CA        -47.4888  -26.8475   12.5141 C.3       6 UNK         0.0844 
     56 C56       -47.3425  -28.2107   11.7933 C.3       14 UNK        -0.0967 
     57 S57       -48.2719  -28.3231   10.2222 S.3       14 UNK        -0.2604 
     58 C58       -49.6450  -29.3970   10.7451 C.3       14 UNK         0.0134 
     59 N         -46.9501  -25.7455   11.7108 N.am      6 UNK        -0.4116 
     60 C         -46.7762  -24.4839   12.1316 C.2       5 UNK         0.5034 
     61 O         -47.0402  -24.1111   13.2751 O.2       5 UNK        -0.5045 
     62 CA        -46.3094  -23.4520   11.0912 C.3       5 UNK         0.0224 
     63 CB        -45.2524  -22.4771   11.6515 C.3       5 UNK        -0.1978 
     64 N         -45.9022  -24.0533    9.8137 N.am      5 UNK        -0.4737 
     65 C         -44.7746  -24.7207    9.5190 C.2       4 UNK         0.5027 
     66 O         -43.8567  -24.9000   10.3186 O.2       4 UNK        -0.5211 
     67 CA        -44.6603  -25.3369    8.1067 C.3       4 UNK         0.0297 
     68 CB        -44.5620  -26.8700    8.2006 C.3       4 UNK        -0.1993 
     69 N         -45.7770  -24.9930    7.2203 N.am      4 UNK        -0.4486 
     70 C         -46.0051  -23.7858    6.6839 C.2       3 UNK         0.4961 
     71 O         -45.2078  -22.8504    6.7497 O.2       3 UNK        -0.5105 
     72 CA        -47.3686  -23.5642    5.9987 C.3       3 UNK         0.0299 
     73 CB        -47.1939  -23.4743    4.4744 C.3       3 UNK        -0.1972 
     74 N         -48.3866  -24.5789    6.3017 N.am      3 UNK        -0.4305 
     75 C         -48.9028  -24.8757    7.5034 C.2       2 UNK         0.5006 
     76 O         -48.5588  -24.3223    8.5486 O.2       2 UNK        -0.5106 
     77 CA        -49.9274  -26.0236    7.5658 C.3       2 UNK         0.0296 
     78 CB        -51.3542  -25.5048    7.2996 C.3       2 UNK        -0.2002 
     79 N         -49.5851  -27.1757    6.7120 N.am      2 UNK        -0.4032 
     80 C         -49.6026  -27.2530    5.3706 C.2       1 UNK         0.5000 
     81 O         -49.9427  -26.3215    4.6386 O.2       1 UNK        -0.5238 
     82 H82       -45.0941  -28.7491    5.2856 H         1 UNK         0.0889 
     83 H83       -44.8349  -27.0706    4.7972 H         1 UNK         0.0889 
     84 H84       -44.7311  -28.3653    3.6026 H         1 UNK         0.0889 
     85 H85       -47.2520  -29.2634    5.5503 H         1 UNK         0.3028 
     86 H86       -49.3014  -28.5045    3.6704 H         1 UNK         0.0864 
     87 H87       -49.4779  -29.9831    6.3338 H         1 UNK         0.0720 
     88 H88       -49.2937  -30.7134    4.7714 H         1 UNK         0.0720 
     89 H89       -53.0998  -31.1394    6.3885 H         1 UNK         0.0814 
     90 H90       -51.4775  -31.7202    6.6493 H         1 UNK         0.0814 
     91 H91       -50.1115  -30.7716    8.4458 H         1 UNK         0.1469 
     92 H92       -51.8137  -27.7733   10.9856 H         1 UNK         0.1381 
     93 H93       -53.8517  -28.9455    7.4012 H         1 UNK         0.1206 
     94 H94       -53.8549  -26.6916   10.4379 H         1 UNK         0.0813 
     95 H95       -54.2215  -26.6018    8.7318 H         1 UNK         0.0813 
     96 H96       -54.3701  -28.7509   11.8124 H         1 UNK         0.0638 
     97 H97       -55.0785  -30.1503   11.0480 H         1 UNK         0.0638 
     98 H98       -57.3315  -29.4746   11.8750 H         1 UNK         0.0568 
     99 H99       -56.5578  -28.7000   15.0603 H         1 UNK         0.3450 
    100 H100      -56.1734  -30.3255   15.5702 H         1 UNK         0.3450 
    101 H101      -55.9229  -27.1523   13.0442 H         1 UNK         0.2987 
    102 H102      -58.0552  -25.1327   12.7692 H         1 UNK         0.0766 
    103 H103      -59.3720  -24.5061   14.8129 H         1 UNK         0.0798 
    104 H104      -59.4148  -26.1997   15.3009 H         1 UNK         0.0798 
    105 H105      -60.2158  -25.6844   13.8242 H         1 UNK         0.0798 
    106 H106      -56.3286  -24.6196   14.0532 H         1 UNK         0.3198 
    107 H107      -54.6604  -24.7141   15.3944 H         1 UNK         0.0843 
    108 H108      -55.5582  -25.6478   18.1767 H         1 UNK         0.0831 
    109 H109      -55.9408  -24.0904   17.4556 H         1 UNK         0.0831 
    110 H110      -54.2723  -24.4886   17.8350 H         1 UNK         0.0831 
    111 H111      -53.6446  -26.7900   17.0050 H         1 UNK         0.3133 
    112 H112      -52.9529  -29.0183   16.0783 H         1 UNK         0.0566 
    113 H113      -51.3956  -29.9077   14.3449 H         1 UNK         0.0814 
    114 H114      -53.0046  -29.6614   13.6874 H         1 UNK         0.0814 
    115 H115      -51.7241  -28.5148   13.3183 H         1 UNK         0.0814 
    116 H116      -50.5762  -27.5098   15.2499 H         1 UNK         0.3091 
    117 H117      -49.9360  -26.2369   18.5542 H         1 UNK         0.0702 
    118 H118      -47.7349  -27.0825   17.7855 H         1 UNK         0.0785 
    119 H119      -48.5018  -28.0048   16.4955 H         1 UNK         0.0785 
    120 H120      -48.8044  -28.4191   18.1767 H         1 UNK         0.0785 
    121 H121      -49.2314  -25.7537   15.7093 H         1 UNK         0.2998 
    122 H122      -50.6593  -22.5122   15.7015 H         1 UNK         0.0697 
    123 H123      -47.6813  -23.2438   15.7549 H         1 UNK         0.0825 
    124 H124      -48.4608  -21.9906   16.7084 H         1 UNK         0.0825 
    125 H125      -48.3668  -21.8264   14.9617 H         1 UNK         0.0825 
    126 H126      -49.0823  -24.0994   13.8526 H         1 UNK         0.3029 
    127 H127      -51.6577  -26.1519   12.7595 H         1 UNK         0.0897 
    128 H128      -51.6427  -25.2151   10.4643 H         1 UNK         0.0792 
    129 H129      -51.0013  -23.6844   11.0617 H         1 UNK         0.0792 
    130 H130      -52.6172  -24.2084   11.5202 H         1 UNK         0.0792 
    131 H131      -49.2847  -25.4326   11.3713 H         1 UNK         0.3086 
    132 H132      -46.8777  -26.8953   13.4180 H         1 UNK         0.0583 
    133 H133      -46.2896  -28.3914   11.5708 H         1 UNK         0.1020 
    134 H134      -47.6331  -29.0245   12.4608 H         1 UNK         0.1020 
    135 H135      -49.2993  -30.4311   10.7858 H         1 UNK         0.0694 
    136 H136      -49.9553  -29.1387   11.7580 H         1 UNK         0.0694 
    137 H137      -46.7314  -25.9587   10.7494 H         1 UNK         0.2989 
    138 H138      -47.1967  -22.8606   10.8583 H         1 UNK         0.1055 
    139 H139      -45.6568  -21.9048   12.4874 H         1 UNK         0.0806 
    140 H140      -44.9311  -21.7610   10.8953 H         1 UNK         0.0806 
    141 H141      -44.3690  -22.9985   12.0205 H         1 UNK         0.0806 
    142 H142      -46.6197  -24.0146    9.0957 H         1 UNK         0.3061 
    143 H143      -43.7376  -24.9573    7.6628 H         1 UNK         0.0734 
    144 H144      -44.3739  -27.3166    7.2256 H         1 UNK         0.0832 
    145 H145      -43.7381  -27.1721    8.8490 H         1 UNK         0.0832 
    146 H146      -45.4725  -27.3129    8.6065 H         1 UNK         0.0832 
    147 H147      -46.4950  -25.6923    7.1065 H         1 UNK         0.3156 
    148 H148      -47.7521  -22.6064    6.3556 H         1 UNK         0.0589 
    149 H149      -46.8248  -24.4112    4.0558 H         1 UNK         0.0808 
    150 H150      -48.1350  -23.2341    3.9793 H         1 UNK         0.0808 
    151 H151      -46.4803  -22.6939    4.2063 H         1 UNK         0.0808 
    152 H152      -48.7742  -25.0844    5.5082 H         1 UNK         0.3098 
    153 H153      -49.9117  -26.4037    8.5880 H         1 UNK         0.0720 
    154 H154      -52.0805  -26.3159    7.3231 H         1 UNK         0.0791 
    155 H155      -51.4398  -25.0119    6.3311 H         1 UNK         0.0791 
    156 H156      -51.6506  -24.7769    8.0552 H         1 UNK         0.0791 
    157 H157      -49.2737  -27.9911    7.2208 H         1 UNK         0.3028 
@<TRIPOS>BOND
     1    1    2 1    
     2    1   82 1    
     3    1   83 1    
     4    1   84 1    
     5    2    3 2    
     6    2    4 am   BACKBONE|DICT|INTERRES
     7    4    5 1    
     8    4   85 1    
     9    5    6 1    
    10    5   80 1    
    11    5   86 1    
    12    6    7 1    
    13    6   87 1    
    14    6   88 1    
    15    7    8 1    
    16    8    9 1    
    17    8   89 1    
    18    8   90 1    
    19    9   10 ar   
    20    9   14 ar   
    21   10   11 ar   
    22   10   91 1    
    23   11   12 ar   
    24   11   58 1    
    25   12   13 ar   
    26   12   92 1    
    27   13   14 ar   
    28   13   15 1    
    29   14   93 1    
    30   15   16 1    
    31   15   94 1    
    32   15   95 1    
    33   16   17 1    
    34   17   18 1    
    35   17   96 1    
    36   17   97 1    
    37   18   19 1    
    38   18   22 1    
    39   18   98 1    
    40   19   20 am   BACKBONE|DICT|INTERRES
    41   19   21 2    
    42   20   99 1    
    43   20  100 1    
    44   22   23 am   BACKBONE|DICT|INTERRES
    45   22  101 1    
    46   23   24 2    
    47   23   25 1    
    48   25   26 1    
    49   25   27 1    
    50   25  102 1    
    51   26  103 1    
    52   26  104 1    
    53   26  105 1    
    54   27   28 am   BACKBONE|DICT|INTERRES
    55   27  106 1    
    56   28   29 2    
    57   28   30 1    
    58   30   31 1    
    59   30   32 1    
    60   30  107 1    
    61   31  108 1    
    62   31  109 1    
    63   31  110 1    
    64   32   33 am   BACKBONE|DICT|INTERRES
    65   32  111 1    
    66   33   34 2    
    67   33   35 1    
    68   35   36 1    
    69   35   37 1    
    70   35  112 1    
    71   36  113 1    
    72   36  114 1    
    73   36  115 1    
    74   37   38 am   BACKBONE|DICT|INTERRES
    75   37  116 1    
    76   38   39 2    
    77   38   40 1    
    78   40   41 1    
    79   40   42 1    
    80   40  117 1    
    81   41  118 1    
    82   41  119 1    
    83   41  120 1    
    84   42   43 am   BACKBONE|DICT|INTERRES
    85   42  121 1    
    86   43   44 2    
    87   43   45 1    
    88   45   46 1    
    89   45   47 1    
    90   45  122 1    
    91   46  123 1    
    92   46  124 1    
    93   46  125 1    
    94   47   48 am   BACKBONE|DICT|INTERRES
    95   47  126 1    
    96   48   49 2    
    97   48   50 1    
    98   50   51 1    
    99   50   52 1    
   100   50  127 1    
   101   51  128 1    
   102   51  129 1    
   103   51  130 1    
   104   52   53 am   BACKBONE|DICT|INTERRES
   105   52  131 1    
   106   53   54 2    
   107   53   55 1    
   108   55   56 1    
   109   55   59 1    
   110   55  132 1    
   111   56   57 1    
   112   56  133 1    
   113   56  134 1    
   114   57   58 1    
   115   58  135 1    
   116   58  136 1    
   117   59   60 am   BACKBONE|DICT|INTERRES
   118   59  137 1    
   119   60   61 2    
   120   60   62 1    
   121   62   63 1    
   122   62   64 1    
   123   62  138 1    
   124   63  139 1    
   125   63  140 1    
   126   63  141 1    
   127   64   65 am   BACKBONE|DICT|INTERRES
   128   64  142 1    
   129   65   66 2    
   130   65   67 1    
   131   67   68 1    
   132   67   69 1    
   133   67  143 1    
   134   68  144 1    
   135   68  145 1    
   136   68  146 1    
   137   69   70 am   BACKBONE|DICT|INTERRES
   138   69  147 1    
   139   70   71 2    
   140   70   72 1    
   141   72   73 1    
   142   72   74 1    
   143   72  148 1    
   144   73  149 1    
   145   73  150 1    
   146   73  151 1    
   147   74   75 am   BACKBONE|DICT|INTERRES
   148   74  152 1    
   149   75   76 2    
   150   75   77 1    
   151   77   78 1    
   152   77   79 1    
   153   77  153 1    
   154   78  154 1    
   155   78  155 1    
   156   78  156 1    
   157   79   80 am   BACKBONE|DICT|INTERRES
   158   79  157 1    
   159   80   81 2    
@<TRIPOS>SUBSTRUCTURE
     1 UNK         1 GROUP             0       ****    0 ROOT    
