@<TRIPOS>MOLECULE
3R207
157   159    1
SMALL
USER_CHARGES


@<TRIPOS>ATOM
      1 CA        -44.4041  -29.1051    7.2500 C.3       0 UNK        -0.1975 
      2 C         -45.6694  -28.6203    6.5574 C.2       0 UNK         0.4852 
      3 O         -45.5876  -27.8058    5.6379 O.2       0 UNK        -0.5216 
      4 N         -46.8342  -29.1229    6.9896 N.am      1 UNK        -0.4461 
      5 CA        -48.1627  -28.7335    6.5040 C.3       1 UNK         0.0864 
      6 C6        -49.2608  -29.6560    7.0893 C.3       14 UNK        -0.0898 
      7 S7        -50.7312  -29.7587    6.0175 S.3       14 UNK        -0.2598 
      8 C8        -51.9771  -30.3724    7.2038 C.3       14 UNK         0.0286 
      9 C9        -53.0096  -29.3372    7.6537 C.ar      14 UNK        -0.0844 
     10 C10       -52.7270  -27.9650    7.7269 C.ar      14 UNK        -0.0881 
     11 C11       -53.7096  -27.0567    8.1389 C.ar      14 UNK        -0.0643 
     12 C12       -54.9780  -27.5272    8.4899 C.ar      14 UNK        -0.0930 
     13 C13       -55.2715  -28.8911    8.4307 C.ar      14 UNK        -0.0827 
     14 C14       -54.2836  -29.7875    8.0159 C.ar      14 UNK        -0.1249 
     15 C15       -56.6628  -29.3925    8.7926 C.3       14 UNK         0.0141 
     16 S16       -56.9463  -29.3934   10.5900 S.3       14 UNK        -0.2313 
     17 C17       -55.7378  -30.6437   11.1428 C.3       14 UNK        -0.0915 
     18 CA        -56.0489  -31.2044   12.5629 C.3       13 UNK         0.0968 
     19 C         -55.0993  -32.3757   12.9623 C.2       13 UNK         0.5732 
     20 N         -54.7195  -32.5201   14.2266 N.am      13 UNK        -0.7310 
     21 O         -54.7295  -33.1940   12.1231 O.2       13 UNK        -0.5035 
     22 N         -56.1983  -30.1511   13.5865 N.am      13 UNK        -0.4233 
     23 C         -55.2557  -29.2757   13.9571 C.2       13 UNK         0.4989 
     24 O         -54.1019  -29.2684   13.5221 O.2       13 UNK        -0.4996 
     25 CA        -55.6654  -28.2550   15.0303 C.3       12 UNK         0.0216 
     26 CB        -55.2621  -28.7520   16.4276 C.3       12 UNK        -0.1964 
     27 N         -55.0342  -26.9610   14.7635 N.am      12 UNK        -0.4276 
     28 C         -55.4693  -26.1020   13.8290 C.2       12 UNK         0.5020 
     29 O         -56.5251  -26.2614   13.2129 O.2       12 UNK        -0.5489 
     30 CA        -54.5887  -24.8813   13.4905 C.3       11 UNK         0.0294 
     31 CB        -55.4165  -23.6198   13.1654 C.3       11 UNK        -0.2019 
     32 N         -53.5390  -24.5886   14.4712 N.am      11 UNK        -0.4493 
     33 C         -53.6799  -24.1820   15.7410 C.2       11 UNK         0.4932 
     34 O         -54.7663  -23.9583   16.2770 O.2       11 UNK        -0.5029 
     35 CA        -52.3716  -24.0256   16.5448 C.3       10 UNK         0.0280 
     36 CB        -52.6086  -23.9025   18.0649 C.3       10 UNK        -0.1976 
     37 N         -51.3935  -25.0841   16.2569 N.am      10 UNK        -0.4242 
     38 C         -51.5755  -26.4082   16.3933 C.2       10 UNK         0.5072 
     39 O         -52.6166  -26.9023   16.8255 O.2       10 UNK        -0.5224 
     40 CA        -50.4484  -27.3587   15.9427 C.3       9 UNK         0.0343 
     41 CB        -50.9637  -28.3203   14.8577 C.3       9 UNK        -0.2003 
     42 N         -49.2627  -26.6699   15.4312 N.am      9 UNK        -0.4272 
     43 C         -48.3009  -26.1186   16.1829 C.2       9 UNK         0.4988 
     44 O         -48.2672  -26.1862   17.4117 O.2       9 UNK        -0.5108 
     45 CA        -47.2162  -25.3170   15.4382 C.3       8 UNK         0.0248 
     46 CB        -46.0889  -26.2449   14.9599 C.3       8 UNK        -0.2001 
     47 N         -47.7410  -24.5416   14.3061 N.am      8 UNK        -0.4140 
     48 C         -48.6614  -23.5706   14.4204 C.2       8 UNK         0.5028 
     49 O         -49.1466  -23.2114   15.4933 O.2       8 UNK        -0.5428 
     50 CA        -49.1690  -22.9220   13.1246 C.3       7 UNK         0.0264 
     51 CB        -48.1686  -21.8746   12.6110 C.3       7 UNK        -0.1988 
     52 N         -49.4480  -23.9001   12.0730 N.am      7 UNK        -0.4454 
     53 C         -50.3894  -24.8533   12.1387 C.2       7 UNK         0.5027 
     54 O         -51.1495  -24.9942   13.0971 O.2       7 UNK        -0.5083 
     55 CA        -50.4466  -25.8575   10.9661 C.3       6 UNK         0.0844 
     56 C56       -51.0709  -25.2399    9.6928 C.3       14 UNK        -0.0967 
     57 S57       -52.8742  -25.0055    9.8164 S.3       14 UNK        -0.2604 
     58 C58       -53.4300  -25.5610    8.1753 C.3       14 UNK         0.0134 
     59 N         -49.1264  -26.4229   10.6825 N.am      6 UNK        -0.4116 
     60 C         -48.3608  -27.0894   11.5571 C.2       5 UNK         0.5034 
     61 O         -48.7061  -27.3804   12.7002 O.2       5 UNK        -0.5045 
     62 CA        -46.9467  -27.4530   11.0895 C.3       5 UNK         0.0224 
     63 CB        -46.9348  -28.8368   10.4269 C.3       5 UNK        -0.1978 
     64 N         -46.4002  -26.4446   10.1768 N.am      5 UNK        -0.4737 
     65 C         -45.9663  -25.2450   10.5826 C.2       4 UNK         0.5027 
     66 O         -45.9906  -24.8740   11.7578 O.2       4 UNK        -0.5211 
     67 CA        -45.4114  -24.3049    9.4989 C.3       4 UNK         0.0297 
     68 CB        -44.1449  -24.8979    8.8574 C.3       4 UNK        -0.1993 
     69 N         -46.3555  -23.9192    8.4426 N.am      4 UNK        -0.4486 
     70 C         -47.5659  -23.3700    8.6219 C.2       3 UNK         0.4961 
     71 O         -48.1396  -23.3089    9.7054 O.2       3 UNK        -0.5105 
     72 CA        -48.2473  -22.7312    7.3975 C.3       3 UNK         0.0299 
     73 CB        -48.0047  -21.2134    7.4128 C.3       3 UNK        -0.1972 
     74 N         -47.7588  -23.2704    6.1251 N.am      3 UNK        -0.4305 
     75 C         -48.1837  -24.3635    5.4758 C.2       2 UNK         0.5006 
     76 O         -47.6315  -24.7424    4.4427 O.2       2 UNK        -0.5106 
     77 CA        -49.4187  -25.1443    5.9730 C.3       2 UNK         0.0296 
     78 CB        -50.6502  -24.8049    5.1175 C.3       2 UNK        -0.2002 
     79 N         -49.1586  -26.5778    5.8905 N.am      2 UNK        -0.4032 
     80 C         -48.4658  -27.2532    6.8132 C.2       1 UNK         0.5000 
     81 O         -48.1011  -26.7632    7.8866 O.2       1 UNK        -0.5238 
     82 H82       -44.6072  -29.9106    7.9554 H         1 UNK         0.0889 
     83 H83       -43.9370  -28.2855    7.7951 H         1 UNK         0.0889 
     84 H84       -43.6912  -29.4747    6.5135 H         1 UNK         0.0889 
     85 H85       -46.8266  -29.7947    7.7422 H         1 UNK         0.3028 
     86 H86       -48.1366  -28.8591    5.4191 H         1 UNK         0.0864 
     87 H87       -48.8832  -30.6750    7.1910 H         1 UNK         0.0720 
     88 H88       -49.5515  -29.3426    8.0947 H         1 UNK         0.0720 
     89 H89       -52.4903  -31.2067    6.7229 H         1 UNK         0.0814 
     90 H90       -51.4889  -30.7908    8.0848 H         1 UNK         0.0814 
     91 H91       -51.7484  -27.5987    7.4529 H         1 UNK         0.1469 
     92 H92       -55.7408  -26.8300    8.8091 H         1 UNK         0.1381 
     93 H93       -54.5111  -30.8440    7.9702 H         1 UNK         0.1206 
     94 H94       -56.8297  -30.3964    8.3990 H         1 UNK         0.0813 
     95 H95       -57.4104  -28.7542    8.3195 H         1 UNK         0.0813 
     96 H96       -54.7405  -30.2022   11.1079 H         1 UNK         0.0638 
     97 H97       -55.7374  -31.4528   10.4105 H         1 UNK         0.0638 
     98 H98       -57.0311  -31.6740   12.5035 H         1 UNK         0.0568 
     99 H99       -55.0198  -31.8645   14.9289 H         1 UNK         0.3450 
    100 H100      -54.1169  -33.2885   14.4750 H         1 UNK         0.3450 
    101 H101      -57.1102  -30.0952   14.0162 H         1 UNK         0.2987 
    102 H102      -56.7498  -28.1255   15.0122 H         1 UNK         0.0766 
    103 H103      -55.4708  -28.0038   17.1926 H         1 UNK         0.0798 
    104 H104      -54.2002  -28.9956   16.4791 H         1 UNK         0.0798 
    105 H105      -55.8143  -29.6535   16.6954 H         1 UNK         0.0798 
    106 H106      -54.1555  -26.7795   15.2345 H         1 UNK         0.3198 
    107 H107      -54.0565  -25.1600   12.5804 H         1 UNK         0.0843 
    108 H108      -54.7732  -22.7811   12.8998 H         1 UNK         0.0831 
    109 H109      -56.0397  -23.3154   14.0066 H         1 UNK         0.0831 
    110 H110      -56.0801  -23.7958   12.3180 H         1 UNK         0.0831 
    111 H111      -52.5912  -24.7456   14.1241 H         1 UNK         0.3133 
    112 H112      -51.9173  -23.0939   16.2052 H         1 UNK         0.0566 
    113 H113      -51.6695  -23.7722   18.6025 H         1 UNK         0.0814 
    114 H114      -53.2349  -23.0396   18.2945 H         1 UNK         0.0814 
    115 H115      -53.1081  -24.7834   18.4695 H         1 UNK         0.0814 
    116 H116      -50.5103  -24.7574   15.8799 H         1 UNK         0.3091 
    117 H117      -50.1599  -27.9519   16.8127 H         1 UNK         0.0702 
    118 H118      -51.8090  -28.9082   15.2177 H         1 UNK         0.0785 
    119 H119      -50.1901  -29.0239   14.5498 H         1 UNK         0.0785 
    120 H120      -51.2979  -27.7819   13.9694 H         1 UNK         0.0785 
    121 H121      -49.1716  -26.6307   14.4190 H         1 UNK         0.2998 
    122 H122      -46.7892  -24.6044   16.1469 H         1 UNK         0.0697 
    123 H123      -46.4595  -27.0106   14.2792 H         1 UNK         0.0825 
    124 H124      -45.6252  -26.7586   15.8031 H         1 UNK         0.0825 
    125 H125      -45.3039  -25.6889   14.4468 H         1 UNK         0.0825 
    126 H126      -47.3635  -24.7516   13.3877 H         1 UNK         0.3029 
    127 H127      -50.1065  -22.4120   13.3568 H         1 UNK         0.0897 
    128 H128      -48.5646  -21.3409   11.7468 H         1 UNK         0.0792 
    129 H129      -47.9493  -21.1317   13.3790 H         1 UNK         0.0792 
    130 H130      -47.2229  -22.3307   12.3148 H         1 UNK         0.0792 
    131 H131      -48.8812  -23.8231   11.2276 H         1 UNK         0.3086 
    132 H132      -51.0746  -26.6936   11.2822 H         1 UNK         0.0583 
    133 H133      -50.6094  -24.2836    9.4425 H         1 UNK         0.1020 
    134 H134      -50.8695  -25.8960    8.8463 H         1 UNK         0.1020 
    135 H135      -54.3394  -25.0157    7.9181 H         1 UNK         0.0694 
    136 H136      -52.6960  -25.2847    7.4185 H         1 UNK         0.0694 
    137 H137      -48.7418  -26.2604    9.7578 H         1 UNK         0.2989 
    138 H138      -46.3035  -27.4990   11.9705 H         1 UNK         0.1055 
    139 H139      -47.2234  -29.6083   11.1422 H         1 UNK         0.0806 
    140 H140      -45.9428  -29.0933   10.0559 H         1 UNK         0.0806 
    141 H141      -47.6394  -28.8883    9.5989 H         1 UNK         0.0806 
    142 H142      -46.4869  -26.6245    9.1824 H         1 UNK         0.3061 
    143 H143      -45.1217  -23.3830   10.0074 H         1 UNK         0.0734 
    144 H144      -43.6357  -24.1637    8.2330 H         1 UNK         0.0832 
    145 H145      -43.4327  -25.2194    9.6189 H         1 UNK         0.0832 
    146 H146      -44.3720  -25.7648    8.2358 H         1 UNK         0.0832 
    147 H147      -46.0006  -23.9572    7.4989 H         1 UNK         0.3156 
    148 H148      -49.3249  -22.8704    7.4858 H         1 UNK         0.0589 
    149 H149      -46.9441  -20.9689    7.3403 H         1 UNK         0.0808 
    150 H150      -48.5202  -20.7204    6.5882 H         1 UNK         0.0808 
    151 H151      -48.3778  -20.7681    8.3366 H         1 UNK         0.0808 
    152 H152      -46.9847  -22.7676    5.7154 H         1 UNK         0.3098 
    153 H153      -49.6511  -24.9152    7.0108 H         1 UNK         0.0720 
    154 H154      -51.5103  -25.4147    5.3927 H         1 UNK         0.0791 
    155 H155      -50.4611  -24.9632    4.0547 H         1 UNK         0.0791 
    156 H156      -50.9353  -23.7599    5.2457 H         1 UNK         0.0791 
    157 H157      -49.4051  -27.0354    5.0246 H         1 UNK         0.3028 
@<TRIPOS>BOND
     1    1    2 1    
     2    1   82 1    
     3    1   83 1    
     4    1   84 1    
     5    2    3 2    
     6    2    4 am   BACKBONE|DICT|INTERRES
     7    4    5 1    
     8    4   85 1    
     9    5    6 1    
    10    5   80 1    
    11    5   86 1    
    12    6    7 1    
    13    6   87 1    
    14    6   88 1    
    15    7    8 1    
    16    8    9 1    
    17    8   89 1    
    18    8   90 1    
    19    9   10 ar   
    20    9   14 ar   
    21   10   11 ar   
    22   10   91 1    
    23   11   12 ar   
    24   11   58 1    
    25   12   13 ar   
    26   12   92 1    
    27   13   14 ar   
    28   13   15 1    
    29   14   93 1    
    30   15   16 1    
    31   15   94 1    
    32   15   95 1    
    33   16   17 1    
    34   17   18 1    
    35   17   96 1    
    36   17   97 1    
    37   18   19 1    
    38   18   22 1    
    39   18   98 1    
    40   19   20 am   BACKBONE|DICT|INTERRES
    41   19   21 2    
    42   20   99 1    
    43   20  100 1    
    44   22   23 am   BACKBONE|DICT|INTERRES
    45   22  101 1    
    46   23   24 2    
    47   23   25 1    
    48   25   26 1    
    49   25   27 1    
    50   25  102 1    
    51   26  103 1    
    52   26  104 1    
    53   26  105 1    
    54   27   28 am   BACKBONE|DICT|INTERRES
    55   27  106 1    
    56   28   29 2    
    57   28   30 1    
    58   30   31 1    
    59   30   32 1    
    60   30  107 1    
    61   31  108 1    
    62   31  109 1    
    63   31  110 1    
    64   32   33 am   BACKBONE|DICT|INTERRES
    65   32  111 1    
    66   33   34 2    
    67   33   35 1    
    68   35   36 1    
    69   35   37 1    
    70   35  112 1    
    71   36  113 1    
    72   36  114 1    
    73   36  115 1    
    74   37   38 am   BACKBONE|DICT|INTERRES
    75   37  116 1    
    76   38   39 2    
    77   38   40 1    
    78   40   41 1    
    79   40   42 1    
    80   40  117 1    
    81   41  118 1    
    82   41  119 1    
    83   41  120 1    
    84   42   43 am   BACKBONE|DICT|INTERRES
    85   42  121 1    
    86   43   44 2    
    87   43   45 1    
    88   45   46 1    
    89   45   47 1    
    90   45  122 1    
    91   46  123 1    
    92   46  124 1    
    93   46  125 1    
    94   47   48 am   BACKBONE|DICT|INTERRES
    95   47  126 1    
    96   48   49 2    
    97   48   50 1    
    98   50   51 1    
    99   50   52 1    
   100   50  127 1    
   101   51  128 1    
   102   51  129 1    
   103   51  130 1    
   104   52   53 am   BACKBONE|DICT|INTERRES
   105   52  131 1    
   106   53   54 2    
   107   53   55 1    
   108   55   56 1    
   109   55   59 1    
   110   55  132 1    
   111   56   57 1    
   112   56  133 1    
   113   56  134 1    
   114   57   58 1    
   115   58  135 1    
   116   58  136 1    
   117   59   60 am   BACKBONE|DICT|INTERRES
   118   59  137 1    
   119   60   61 2    
   120   60   62 1    
   121   62   63 1    
   122   62   64 1    
   123   62  138 1    
   124   63  139 1    
   125   63  140 1    
   126   63  141 1    
   127   64   65 am   BACKBONE|DICT|INTERRES
   128   64  142 1    
   129   65   66 2    
   130   65   67 1    
   131   67   68 1    
   132   67   69 1    
   133   67  143 1    
   134   68  144 1    
   135   68  145 1    
   136   68  146 1    
   137   69   70 am   BACKBONE|DICT|INTERRES
   138   69  147 1    
   139   70   71 2    
   140   70   72 1    
   141   72   73 1    
   142   72   74 1    
   143   72  148 1    
   144   73  149 1    
   145   73  150 1    
   146   73  151 1    
   147   74   75 am   BACKBONE|DICT|INTERRES
   148   74  152 1    
   149   75   76 2    
   150   75   77 1    
   151   77   78 1    
   152   77   79 1    
   153   77  153 1    
   154   78  154 1    
   155   78  155 1    
   156   78  156 1    
   157   79   80 am   BACKBONE|DICT|INTERRES
   158   79  157 1    
   159   80   81 2    
@<TRIPOS>SUBSTRUCTURE
     1 UNK         1 GROUP             0       ****    0 ROOT    
