@<TRIPOS>MOLECULE
3R207
157   159    1
SMALL
USER_CHARGES


@<TRIPOS>ATOM
      1 CA        -47.9189  -29.5686    2.4343 C.3       0 UNK        -0.1975 
      2 C         -48.1036  -30.0376    3.8755 C.2       0 UNK         0.4852 
      3 O         -47.5654  -31.0803    4.2427 O.2       0 UNK        -0.5216 
      4 N         -48.8498  -29.3190    4.7279 N.am      1 UNK        -0.4461 
      5 CA        -49.5296  -28.0420    4.4617 C.3       1 UNK         0.0864 
      6 C6        -50.5556  -27.6942    5.5675 C.3       14 UNK        -0.0898 
      7 S7        -51.8615  -28.9509    5.7746 S.3       14 UNK        -0.2598 
      8 C8        -51.5285  -29.5559    7.4684 C.3       14 UNK         0.0286 
      9 C9        -51.9274  -28.6229    8.6175 C.ar      14 UNK        -0.0844 
     10 C10       -52.2477  -27.2697    8.4381 C.ar      14 UNK        -0.0881 
     11 C11       -52.5686  -26.4532    9.5266 C.ar      14 UNK        -0.0643 
     12 C12       -52.6025  -27.0055   10.8095 C.ar      14 UNK        -0.0930 
     13 C13       -52.3085  -28.3575   11.0069 C.ar      14 UNK        -0.0827 
     14 C14       -51.9573  -29.1515    9.9115 C.ar      14 UNK        -0.1249 
     15 C15       -52.3695  -28.9640   12.4009 C.3       14 UNK         0.0141 
     16 S16       -53.7376  -30.1586   12.5402 S.3       14 UNK        -0.2313 
     17 C17       -53.6840  -30.5525   14.3207 C.3       14 UNK        -0.0915 
     18 CA        -55.0723  -30.9530   14.8905 C.3       13 UNK         0.0968 
     19 C         -54.9522  -31.4039   16.3749 C.2       13 UNK         0.5732 
     20 N         -55.5531  -30.7103   17.3349 N.am      13 UNK        -0.7310 
     21 O         -54.3077  -32.4107   16.6597 O.2       13 UNK        -0.5035 
     22 N         -56.0820  -29.9095   14.6507 N.am      13 UNK        -0.4233 
     23 C         -57.4075  -30.1104   14.6167 C.2       13 UNK         0.4989 
     24 O         -57.9354  -31.2063   14.8103 O.2       13 UNK        -0.4996 
     25 CA        -58.3109  -28.8950   14.3153 C.3       12 UNK         0.0216 
     26 CB        -58.9415  -28.3606   15.6119 C.3       12 UNK        -0.1964 
     27 N         -57.6073  -27.8011   13.6416 N.am      12 UNK        -0.4276 
     28 C         -57.1319  -27.8490   12.3902 C.2       12 UNK         0.5020 
     29 O         -57.4120  -28.7472   11.5952 O.2       12 UNK        -0.5489 
     30 CA        -56.1622  -26.7315   11.9484 C.3       11 UNK         0.0294 
     31 CB        -56.7888  -25.8714   10.8381 C.3       11 UNK        -0.2019 
     32 N         -55.6553  -25.8437   13.0087 N.am      11 UNK        -0.4493 
     33 C         -54.9585  -26.2183   14.0906 C.2       11 UNK         0.4932 
     34 O         -54.7724  -27.3914   14.4152 O.2       11 UNK        -0.5029 
     35 CA        -54.4349  -25.0918   14.9969 C.3       10 UNK         0.0280 
     36 CB        -55.5204  -24.6659   15.9990 C.3       10 UNK        -0.1976 
     37 N         -53.2407  -25.5118   15.7353 N.am      10 UNK        -0.4242 
     38 C         -52.0621  -25.7929   15.1649 C.2       10 UNK         0.5072 
     39 O         -51.8265  -25.6372   13.9677 O.2       10 UNK        -0.5224 
     40 CA        -50.9890  -26.3894   16.0797 C.3       9 UNK         0.0343 
     41 CB        -51.1805  -27.9115   16.2221 C.3       9 UNK        -0.2003 
     42 N         -49.6599  -26.1053   15.5408 N.am      9 UNK        -0.4272 
     43 C         -48.5448  -26.0366   16.2788 C.2       9 UNK         0.4988 
     44 O         -48.5201  -26.2221   17.4969 O.2       9 UNK        -0.5108 
     45 CA        -47.2282  -25.7088   15.5550 C.3       8 UNK         0.0248 
     46 CB        -46.6223  -26.9770   14.9319 C.3       8 UNK        -0.2001 
     47 N         -47.3621  -24.6662   14.5354 N.am      8 UNK        -0.4140 
     48 C         -47.6229  -23.3756   14.7936 C.2       8 UNK         0.5028 
     49 O         -47.7702  -22.9184   15.9279 O.2       8 UNK        -0.5428 
     50 CA        -47.7344  -22.4283   13.5861 C.3       7 UNK         0.0264 
     51 CB        -46.3447  -21.9507   13.1358 C.3       7 UNK        -0.1988 
     52 N         -48.4322  -23.0486   12.4598 N.am      7 UNK        -0.4454 
     53 C         -49.7496  -23.2977   12.4346 C.2       7 UNK         0.5027 
     54 O         -50.5279  -22.8966   13.3005 O.2       7 UNK        -0.5083 
     55 CA        -50.2912  -24.1227   11.2475 C.3       6 UNK         0.0844 
     56 C56       -50.8485  -23.1898   10.1454 C.3       14 UNK        -0.0967 
     57 S57       -51.4628  -24.0566    8.6600 S.3       14 UNK        -0.2604 
     58 C58       -52.8995  -24.9834    9.2981 C.3       14 UNK         0.0134 
     59 N         -49.3037  -25.0753   10.7346 N.am      6 UNK        -0.4116 
     60 C         -48.8645  -26.1585   11.3904 C.2       5 UNK         0.5034 
     61 O         -49.2293  -26.4888   12.5178 O.2       5 UNK        -0.5045 
     62 CA        -47.7701  -26.9730   10.6859 C.3       5 UNK         0.0224 
     63 CB        -48.3716  -27.8696    9.5910 C.3       5 UNK        -0.1978 
     64 N         -46.7355  -26.1035   10.1171 N.am      5 UNK        -0.4737 
     65 C         -45.8807  -25.3840   10.8618 C.2       4 UNK         0.5027 
     66 O         -45.8539  -25.4250   12.0907 O.2       4 UNK        -0.5211 
     67 CA        -44.9216  -24.4264   10.1315 C.3       4 UNK         0.0297 
     68 CB        -43.6026  -25.1419    9.8009 C.3       4 UNK        -0.1993 
     69 N         -45.4826  -23.8536    8.9074 N.am      4 UNK        -0.4486 
     70 C         -46.5952  -23.1088    8.8362 C.2       3 UNK         0.4961 
     71 O         -47.2419  -22.7491    9.8193 O.2       3 UNK        -0.5105 
     72 CA        -47.1032  -22.7497    7.4270 C.3       3 UNK         0.0299 
     73 CB        -46.6463  -21.3350    7.0385 C.3       3 UNK        -0.1972 
     74 N         -46.7023  -23.7000    6.3786 N.am      3 UNK        -0.4305 
     75 C         -47.0034  -25.0061    6.3750 C.2       2 UNK         0.5006 
     76 O         -47.6147  -25.5702    7.2864 O.2       2 UNK        -0.5106 
     77 CA        -46.4760  -25.8364    5.1944 C.3       2 UNK         0.0296 
     78 CB        -45.0703  -26.3757    5.5068 C.3       2 UNK        -0.2002 
     79 N         -47.3752  -26.9623    4.9506 N.am      2 UNK        -0.4032 
     80 C         -48.5519  -26.8575    4.3187 C.2       1 UNK         0.5000 
     81 O         -48.8932  -25.8684    3.6676 O.2       1 UNK        -0.5238 
     82 H82       -47.4502  -30.3519    1.8387 H         1 UNK         0.0889 
     83 H83       -47.2746  -28.6912    2.3907 H         1 UNK         0.0889 
     84 H84       -48.8732  -29.3319    1.9657 H         1 UNK         0.0889 
     85 H85       -48.9794  -29.6817    5.6608 H         1 UNK         0.3028 
     86 H86       -50.0755  -28.1305    3.5207 H         1 UNK         0.0864 
     87 H87       -51.0567  -26.7522    5.3341 H         1 UNK         0.0720 
     88 H88       -50.0474  -27.5334    6.5210 H         1 UNK         0.0720 
     89 H89       -50.4686  -29.7959    7.5610 H         1 UNK         0.0814 
     90 H90       -52.0646  -30.4989    7.5865 H         1 UNK         0.0814 
     91 H91       -52.2429  -26.8251    7.4552 H         1 UNK         0.1469 
     92 H92       -52.8626  -26.3858   11.6565 H         1 UNK         0.1381 
     93 H93       -51.7191  -30.1946   10.0703 H         1 UNK         0.1206 
     94 H94       -51.4245  -29.4601   12.6259 H         1 UNK         0.0813 
     95 H95       -52.4954  -28.1814   13.1495 H         1 UNK         0.0813 
     96 H96       -53.2938  -29.6916   14.8655 H         1 UNK         0.0638 
     97 H97       -52.9609  -31.3583   14.4587 H         1 UNK         0.0638 
     98 H98       -55.3957  -31.8408   14.3438 H         1 UNK         0.0568 
     99 H99       -56.0814  -29.8833   17.1106 H         1 UNK         0.3450 
    100 H100      -55.4714  -31.0171   18.2912 H         1 UNK         0.3450 
    101 H101      -55.7083  -28.9763   14.4924 H         1 UNK         0.2987 
    102 H102      -59.1127  -29.2389   13.6584 H         1 UNK         0.0766 
    103 H103      -59.4961  -29.1453   16.1286 H         1 UNK         0.0798 
    104 H104      -59.6439  -27.5521   15.4078 H         1 UNK         0.0798 
    105 H105      -58.1873  -27.9845   16.3043 H         1 UNK         0.0798 
    106 H106      -57.3183  -27.0237   14.2167 H         1 UNK         0.3198 
    107 H107      -55.2975  -27.2462   11.5262 H         1 UNK         0.0843 
    108 H108      -57.6433  -25.3010   11.2041 H         1 UNK         0.0831 
    109 H109      -57.1410  -26.4921   10.0128 H         1 UNK         0.0831 
    110 H110      -56.0655  -25.1699   10.4219 H         1 UNK         0.0831 
    111 H111      -55.7925  -24.8546   12.8552 H         1 UNK         0.3133 
    112 H112      -54.1676  -24.2346   14.3751 H         1 UNK         0.0566 
    113 H113      -55.8231  -25.4928   16.6431 H         1 UNK         0.0814 
    114 H114      -56.4140  -24.3100   15.4843 H         1 UNK         0.0814 
    115 H115      -55.1739  -23.8529   16.6376 H         1 UNK         0.0814 
    116 H116      -53.3647  -25.7121   16.7167 H         1 UNK         0.3091 
    117 H117      -51.0861  -25.9181   17.0602 H         1 UNK         0.0702 
    118 H118      -50.4694  -28.3381   16.9296 H         1 UNK         0.0785 
    119 H119      -51.0473  -28.4204   15.2668 H         1 UNK         0.0785 
    120 H120      -52.1808  -28.1516   16.5848 H         1 UNK         0.0785 
    121 H121      -49.6236  -25.9553   14.5348 H         1 UNK         0.2998 
    122 H122      -46.5262  -25.3415   16.3066 H         1 UNK         0.0697 
    123 H123      -45.6384  -26.7784   14.5068 H         1 UNK         0.0825 
    124 H124      -47.2534  -27.3802   14.1396 H         1 UNK         0.0825 
    125 H125      -46.4990  -27.7601   15.6812 H         1 UNK         0.0825 
    126 H126      -47.1888  -24.9476   13.5758 H         1 UNK         0.3029 
    127 H127      -48.3070  -21.5526   13.9000 H         1 UNK         0.0897 
    128 H128      -45.7029  -22.7843   12.8518 H         1 UNK         0.0792 
    129 H129      -45.8406  -21.4127   13.9396 H         1 UNK         0.0792 
    130 H130      -46.4129  -21.2740   12.2837 H         1 UNK         0.0792 
    131 H131      -47.8767  -23.2953   11.6465 H         1 UNK         0.3086 
    132 H132      -51.1249  -24.7083   11.6336 H         1 UNK         0.0583 
    133 H133      -51.6584  -22.5750   10.5432 H         1 UNK         0.1020 
    134 H134      -50.0762  -22.4907    9.8173 H         1 UNK         0.1020 
    135 H135      -53.2736  -24.5169   10.2107 H         1 UNK         0.0694 
    136 H136      -53.7086  -24.9169    8.5695 H         1 UNK         0.0694 
    137 H137      -48.9347  -24.8842    9.8142 H         1 UNK         0.2989 
    138 H138      -47.2994  -27.6165   11.4328 H         1 UNK         0.1055 
    139 H139      -47.6014  -28.4413    9.0737 H         1 UNK         0.0806 
    140 H140      -49.0727  -28.5846   10.0232 H         1 UNK         0.0806 
    141 H141      -48.9208  -27.2924    8.8462 H         1 UNK         0.0806 
    142 H142      -46.7536  -25.9706    9.1109 H         1 UNK         0.3061 
    143 H143      -44.7013  -23.5993   10.8089 H         1 UNK         0.0734 
    144 H144      -43.7528  -25.9648    9.1007 H         1 UNK         0.0832 
    145 H145      -42.8755  -24.4564    9.3653 H         1 UNK         0.0832 
    146 H146      -43.1508  -25.5599   10.7018 H         1 UNK         0.0832 
    147 H147      -45.0210  -24.0914    8.0423 H         1 UNK         0.3156 
    148 H148      -48.1946  -22.7559    7.4704 H         1 UNK         0.0589 
    149 H149      -47.0840  -21.0216    6.0905 H         1 UNK         0.0808 
    150 H150      -45.5613  -21.2709    6.9473 H         1 UNK         0.0808 
    151 H151      -46.9534  -20.6062    7.7902 H         1 UNK         0.0808 
    152 H152      -46.1828  -23.3195    5.5999 H         1 UNK         0.3098 
    153 H153      -46.4277  -25.2092    4.3015 H         1 UNK         0.0720 
    154 H154      -44.3613  -25.5607    5.6578 H         1 UNK         0.0791 
    155 H155      -44.6896  -26.9852    4.6869 H         1 UNK         0.0791 
    156 H156      -45.0617  -26.9875    6.4103 H         1 UNK         0.0791 
    157 H157      -47.2031  -27.7982    5.4900 H         1 UNK         0.3028 
@<TRIPOS>BOND
     1    1    2 1    
     2    1   82 1    
     3    1   83 1    
     4    1   84 1    
     5    2    3 2    
     6    2    4 am   BACKBONE|DICT|INTERRES
     7    4    5 1    
     8    4   85 1    
     9    5    6 1    
    10    5   80 1    
    11    5   86 1    
    12    6    7 1    
    13    6   87 1    
    14    6   88 1    
    15    7    8 1    
    16    8    9 1    
    17    8   89 1    
    18    8   90 1    
    19    9   10 ar   
    20    9   14 ar   
    21   10   11 ar   
    22   10   91 1    
    23   11   12 ar   
    24   11   58 1    
    25   12   13 ar   
    26   12   92 1    
    27   13   14 ar   
    28   13   15 1    
    29   14   93 1    
    30   15   16 1    
    31   15   94 1    
    32   15   95 1    
    33   16   17 1    
    34   17   18 1    
    35   17   96 1    
    36   17   97 1    
    37   18   19 1    
    38   18   22 1    
    39   18   98 1    
    40   19   20 am   BACKBONE|DICT|INTERRES
    41   19   21 2    
    42   20   99 1    
    43   20  100 1    
    44   22   23 am   BACKBONE|DICT|INTERRES
    45   22  101 1    
    46   23   24 2    
    47   23   25 1    
    48   25   26 1    
    49   25   27 1    
    50   25  102 1    
    51   26  103 1    
    52   26  104 1    
    53   26  105 1    
    54   27   28 am   BACKBONE|DICT|INTERRES
    55   27  106 1    
    56   28   29 2    
    57   28   30 1    
    58   30   31 1    
    59   30   32 1    
    60   30  107 1    
    61   31  108 1    
    62   31  109 1    
    63   31  110 1    
    64   32   33 am   BACKBONE|DICT|INTERRES
    65   32  111 1    
    66   33   34 2    
    67   33   35 1    
    68   35   36 1    
    69   35   37 1    
    70   35  112 1    
    71   36  113 1    
    72   36  114 1    
    73   36  115 1    
    74   37   38 am   BACKBONE|DICT|INTERRES
    75   37  116 1    
    76   38   39 2    
    77   38   40 1    
    78   40   41 1    
    79   40   42 1    
    80   40  117 1    
    81   41  118 1    
    82   41  119 1    
    83   41  120 1    
    84   42   43 am   BACKBONE|DICT|INTERRES
    85   42  121 1    
    86   43   44 2    
    87   43   45 1    
    88   45   46 1    
    89   45   47 1    
    90   45  122 1    
    91   46  123 1    
    92   46  124 1    
    93   46  125 1    
    94   47   48 am   BACKBONE|DICT|INTERRES
    95   47  126 1    
    96   48   49 2    
    97   48   50 1    
    98   50   51 1    
    99   50   52 1    
   100   50  127 1    
   101   51  128 1    
   102   51  129 1    
   103   51  130 1    
   104   52   53 am   BACKBONE|DICT|INTERRES
   105   52  131 1    
   106   53   54 2    
   107   53   55 1    
   108   55   56 1    
   109   55   59 1    
   110   55  132 1    
   111   56   57 1    
   112   56  133 1    
   113   56  134 1    
   114   57   58 1    
   115   58  135 1    
   116   58  136 1    
   117   59   60 am   BACKBONE|DICT|INTERRES
   118   59  137 1    
   119   60   61 2    
   120   60   62 1    
   121   62   63 1    
   122   62   64 1    
   123   62  138 1    
   124   63  139 1    
   125   63  140 1    
   126   63  141 1    
   127   64   65 am   BACKBONE|DICT|INTERRES
   128   64  142 1    
   129   65   66 2    
   130   65   67 1    
   131   67   68 1    
   132   67   69 1    
   133   67  143 1    
   134   68  144 1    
   135   68  145 1    
   136   68  146 1    
   137   69   70 am   BACKBONE|DICT|INTERRES
   138   69  147 1    
   139   70   71 2    
   140   70   72 1    
   141   72   73 1    
   142   72   74 1    
   143   72  148 1    
   144   73  149 1    
   145   73  150 1    
   146   73  151 1    
   147   74   75 am   BACKBONE|DICT|INTERRES
   148   74  152 1    
   149   75   76 2    
   150   75   77 1    
   151   77   78 1    
   152   77   79 1    
   153   77  153 1    
   154   78  154 1    
   155   78  155 1    
   156   78  156 1    
   157   79   80 am   BACKBONE|DICT|INTERRES
   158   79  157 1    
   159   80   81 2    
@<TRIPOS>SUBSTRUCTURE
     1 UNK         1 GROUP             0       ****    0 ROOT    
