@<TRIPOS>MOLECULE
3R207
157   159    1
SMALL
USER_CHARGES


@<TRIPOS>ATOM
      1 CA        -50.9358  -31.6204    6.3373 C.3       0 UNK        -0.1975 
      2 C         -50.5920  -30.4113    5.4834 C.2       0 UNK         0.4852 
      3 O         -49.8661  -30.5429    4.4973 O.2       0 UNK        -0.5216 
      4 N         -51.1020  -29.2309    5.8599 N.am      1 UNK        -0.4461 
      5 CA        -50.8743  -27.9624    5.1522 C.3       1 UNK         0.0864 
      6 C6        -51.9137  -26.8780    5.5366 C.3       14 UNK        -0.0898 
      7 S7        -53.6313  -27.3840    5.1782 S.3       14 UNK        -0.2598 
      8 C8        -54.3930  -27.3809    6.8334 C.3       14 UNK         0.0286 
      9 C9        -53.8408  -28.4938    7.7104 C.ar      14 UNK        -0.0844 
     10 C10       -52.8756  -28.2141    8.6809 C.ar      14 UNK        -0.0881 
     11 C11       -52.3333  -29.2381    9.4640 C.ar      14 UNK        -0.0643 
     12 C12       -52.7962  -30.5462    9.2907 C.ar      14 UNK        -0.0930 
     13 C13       -53.7737  -30.8359    8.3342 C.ar      14 UNK        -0.0827 
     14 C14       -54.2916  -29.8054    7.5459 C.ar      14 UNK        -0.1249 
     15 C15       -54.2386  -32.2693    8.1250 C.3       14 UNK         0.0141 
     16 S16       -55.3015  -32.8551    9.4794 S.3       14 UNK        -0.2313 
     17 C17       -56.8268  -31.8770    9.2334 C.3       14 UNK        -0.0915 
     18 CA        -57.1975  -30.9871   10.4498 C.3       13 UNK         0.0968 
     19 C         -57.6288  -31.8429   11.6804 C.2       13 UNK         0.5732 
     20 N         -56.8674  -31.8788   12.7679 N.am      13 UNK        -0.7310 
     21 O         -58.6806  -32.4776   11.6466 O.2       13 UNK        -0.5035 
     22 N         -56.1718  -29.9603   10.7022 N.am      13 UNK        -0.4233 
     23 C         -56.3275  -28.9138   11.5216 C.2       13 UNK         0.4989 
     24 O         -57.3604  -28.6718   12.1516 O.2       13 UNK        -0.4996 
     25 CA        -55.1363  -27.9639   11.6606 C.3       12 UNK         0.0216 
     26 CB        -55.2744  -26.7575   10.7142 C.3       12 UNK        -0.1964 
     27 N         -55.0790  -27.5122   13.0465 N.am      12 UNK        -0.4276 
     28 C         -53.9846  -27.0753   13.6741 C.2       12 UNK         0.5020 
     29 O         -52.8795  -26.9662   13.1410 O.2       12 UNK        -0.5489 
     30 CA        -54.1437  -26.7325   15.1573 C.3       11 UNK         0.0294 
     31 CB        -53.9741  -27.9894   16.0311 C.3       11 UNK        -0.2019 
     32 N         -53.1428  -25.7348   15.5230 N.am      11 UNK        -0.4493 
     33 C         -53.2472  -24.8826   16.5494 C.2       11 UNK         0.4932 
     34 O         -54.2160  -24.8475   17.3109 O.2       11 UNK        -0.5029 
     35 CA        -52.0704  -23.9113   16.7529 C.3       10 UNK         0.0280 
     36 CB        -52.1472  -23.1181   18.0748 C.3       10 UNK        -0.1976 
     37 N         -50.7735  -24.5767   16.6102 N.am      10 UNK        -0.4242 
     38 C         -50.2529  -25.5567   17.3635 C.2       10 UNK         0.5072 
     39 O         -50.7986  -26.0357   18.3584 O.2       10 UNK        -0.5224 
     40 CA        -48.8802  -26.1038   16.9273 C.3       9 UNK         0.0343 
     41 CB        -49.0620  -27.3648   16.0665 C.3       9 UNK        -0.2003 
     42 N         -48.0767  -25.1264   16.1860 N.am      9 UNK        -0.4272 
     43 C         -47.5371  -24.0184   16.7151 C.2       9 UNK         0.4988 
     44 O         -47.5687  -23.7461   17.9158 O.2       9 UNK        -0.5108 
     45 CA        -46.8786  -23.0300   15.7359 C.3       8 UNK         0.0248 
     46 CB        -45.4390  -23.4576   15.4088 C.3       8 UNK        -0.2001 
     47 N         -47.6483  -22.8574   14.4982 N.am      8 UNK        -0.4140 
     48 C         -48.8688  -22.3007   14.4422 C.2       8 UNK         0.5028 
     49 O         -49.4464  -21.8197   15.4168 O.2       8 UNK        -0.5428 
     50 CA        -49.5874  -22.2998   13.0829 C.3       7 UNK         0.0264 
     51 CB        -49.1209  -21.1098   12.2297 C.3       7 UNK        -0.1988 
     52 N         -49.4153  -23.5519   12.3402 N.am      7 UNK        -0.4454 
     53 C         -49.8953  -24.7418   12.7357 C.2       7 UNK         0.5027 
     54 O         -50.5921  -24.8836   13.7412 O.2       7 UNK        -0.5083 
     55 CA        -49.4669  -25.9884   11.9296 C.3       6 UNK         0.0844 
     56 C56       -50.3805  -26.2490   10.7073 C.3       14 UNK        -0.0967 
     57 S57       -49.9563  -27.8302    9.8880 S.3       14 UNK        -0.2604 
     58 C58       -51.2563  -28.9493   10.5044 C.3       14 UNK         0.0134 
     59 N         -48.0512  -25.9282   11.5571 N.am      6 UNK        -0.4116 
     60 C         -47.0296  -25.9376   12.4217 C.2       5 UNK         0.5034 
     61 O         -47.1615  -26.0218   13.6417 O.2       5 UNK        -0.5045 
     62 CA        -45.6246  -25.7804   11.8264 C.3       5 UNK         0.0224 
     63 CB        -45.1006  -27.1239   11.2942 C.3       5 UNK        -0.1978 
     64 N         -45.6012  -24.7778   10.7599 N.am      5 UNK        -0.4737 
     65 C         -45.6889  -23.4577   10.9674 C.2       4 UNK         0.5027 
     66 O         -45.7711  -22.9470   12.0844 O.2       4 UNK        -0.5211 
     67 CA        -45.7190  -22.5594    9.7183 C.3       4 UNK         0.0297 
     68 CB        -44.2952  -22.3133    9.1950 C.3       4 UNK        -0.1993 
     69 N         -46.5564  -23.0924    8.6386 N.am      4 UNK        -0.4486 
     70 C         -47.8846  -23.2429    8.7267 C.2       3 UNK         0.4961 
     71 O         -48.5401  -22.9639    9.7278 O.2       3 UNK        -0.5105 
     72 CA        -48.6130  -23.8366    7.5114 C.3       3 UNK         0.0299 
     73 CB        -48.7784  -22.7788    6.4087 C.3       3 UNK        -0.1972 
     74 N         -48.0378  -25.0574    6.9356 N.am      3 UNK        -0.4305 
     75 C         -47.5471  -26.1205    7.5890 C.2       2 UNK         0.5006 
     76 O         -47.2879  -26.1399    8.7919 O.2       2 UNK        -0.5106 
     77 CA        -47.3885  -27.4024    6.7534 C.3       2 UNK         0.0296 
     78 CB        -46.6503  -28.5176    7.5178 C.3       2 UNK        -0.2002 
     79 N         -48.7081  -27.8961    6.3515 N.am      2 UNK        -0.4032 
     80 C         -49.4426  -27.4115    5.3386 C.2       1 UNK         0.5000 
     81 O         -49.0363  -26.5271    4.5809 O.2       1 UNK        -0.5238 
     82 H82       -50.2391  -32.4366    6.1476 H         1 UNK         0.0889 
     83 H83       -51.9414  -31.9698    6.1064 H         1 UNK         0.0889 
     84 H84       -50.8826  -31.3766    7.3974 H         1 UNK         0.0889 
     85 H85       -51.7310  -29.1854    6.6522 H         1 UNK         0.3028 
     86 H86       -50.9864  -28.1595    4.0836 H         1 UNK         0.0864 
     87 H87       -51.8135  -26.6012    6.5868 H         1 UNK         0.0720 
     88 H88       -51.7307  -25.9619    4.9713 H         1 UNK         0.0720 
     89 H89       -55.4714  -27.5069    6.7257 H         1 UNK         0.0814 
     90 H90       -54.2473  -26.4058    7.3011 H         1 UNK         0.0814 
     91 H91       -52.5349  -27.1976    8.8188 H         1 UNK         0.1469 
     92 H92       -52.3893  -31.3471    9.8935 H         1 UNK         0.1381 
     93 H93       -55.0362  -30.0231    6.7922 H         1 UNK         0.1206 
     94 H94       -54.7676  -32.3759    7.1766 H         1 UNK         0.0813 
     95 H95       -53.3672  -32.9223    8.0603 H         1 UNK         0.0813 
     96 H96       -56.7231  -31.2542    8.3443 H         1 UNK         0.0638 
     97 H97       -57.6400  -32.5686    9.0058 H         1 UNK         0.0638 
     98 H98       -58.0971  -30.4385   10.1645 H         1 UNK         0.0568 
     99 H99       -57.1606  -32.4323   13.5570 H         1 UNK         0.3450 
    100 H100      -55.9978  -31.3732   12.7991 H         1 UNK         0.3450 
    101 H101      -55.2956  -30.0902   10.2153 H         1 UNK         0.2987 
    102 H102      -54.2238  -28.5137   11.4255 H         1 UNK         0.0766 
    103 H103      -54.3789  -26.1362   10.7326 H         1 UNK         0.0798 
    104 H104      -56.1246  -26.1302   10.9846 H         1 UNK         0.0798 
    105 H105      -55.4262  -27.0809    9.6845 H         1 UNK         0.0798 
    106 H106      -55.9516  -27.6134   13.5516 H         1 UNK         0.3198 
    107 H107      -55.1407  -26.3123   15.3084 H         1 UNK         0.0843 
    108 H108      -52.9817  -28.4268   15.9133 H         1 UNK         0.0831 
    109 H109      -54.7037  -28.7554   15.7657 H         1 UNK         0.0831 
    110 H110      -54.1147  -27.7621   17.0879 H         1 UNK         0.0831 
    111 H111      -52.3475  -25.6780   14.8905 H         1 UNK         0.3133 
    112 H112      -52.1266  -23.1908   15.9356 H         1 UNK         0.0566 
    113 H113      -51.3054  -22.4322   18.1717 H         1 UNK         0.0814 
    114 H114      -53.0586  -22.5209   18.1187 H         1 UNK         0.0814 
    115 H115      -52.1476  -23.7755   18.9447 H         1 UNK         0.0814 
    116 H116      -50.2658  -24.3312   15.7683 H         1 UNK         0.3091 
    117 H117      -48.3304  -26.3791   17.8296 H         1 UNK         0.0702 
    118 H118      -49.6245  -28.1284   16.6054 H         1 UNK         0.0785 
    119 H119      -49.6053  -27.1485   15.1457 H         1 UNK         0.0785 
    120 H120      -48.1009  -27.8007   15.7928 H         1 UNK         0.0785 
    121 H121      -47.9202  -25.3197   15.1990 H         1 UNK         0.2998 
    122 H122      -46.8335  -22.0581   16.2319 H         1 UNK         0.0697 
    123 H123      -45.4064  -24.4202   14.8992 H         1 UNK         0.0825 
    124 H124      -44.8445  -23.5509   16.3186 H         1 UNK         0.0825 
    125 H125      -44.9430  -22.7251   14.7717 H         1 UNK         0.0825 
    126 H126      -47.2113  -23.1725   13.6388 H         1 UNK         0.3029 
    127 H127      -50.6551  -22.1767   13.2779 H         1 UNK         0.0897 
    128 H128      -49.7021  -21.0302   11.3108 H         1 UNK         0.0792 
    129 H129      -48.0693  -21.1984   11.9538 H         1 UNK         0.0792 
    130 H130      -49.2402  -20.1695   12.7697 H         1 UNK         0.0792 
    131 H131      -48.9056  -23.4874   11.4606 H         1 UNK         0.3086 
    132 H132      -49.5802  -26.8408   12.6031 H         1 UNK         0.0583 
    133 H133      -51.4312  -26.2581   11.0027 H         1 UNK         0.1020 
    134 H134      -50.2780  -25.4446    9.9768 H         1 UNK         0.1020 
    135 H135      -50.7702  -29.8783   10.8057 H         1 UNK         0.0694 
    136 H136      -51.7158  -28.5450   11.4054 H         1 UNK         0.0694 
    137 H137      -47.8416  -25.9073   10.5613 H         1 UNK         0.2989 
    138 H138      -44.9590  -25.4481   12.6262 H         1 UNK         0.1055 
    139 H139      -45.0762  -27.8722   12.0875 H         1 UNK         0.0806 
    140 H140      -44.0860  -27.0287   10.9074 H         1 UNK         0.0806 
    141 H141      -45.7286  -27.5192   10.4949 H         1 UNK         0.0806 
    142 H142      -45.6649  -25.1241    9.8103 H         1 UNK         0.3061 
    143 H143      -46.1395  -21.5972   10.0192 H         1 UNK         0.0734 
    144 H144      -44.2927  -21.6018    8.3691 H         1 UNK         0.0832 
    145 H145      -43.6592  -21.8990    9.9788 H         1 UNK         0.0832 
    146 H146      -43.8253  -23.2345    8.8480 H         1 UNK         0.0832 
    147 H147      -46.0949  -23.3720    7.7851 H         1 UNK         0.3156 
    148 H148      -49.6128  -24.1120    7.8523 H         1 UNK         0.0589 
    149 H149      -47.8217  -22.5101    5.9593 H         1 UNK         0.0808 
    150 H150      -49.4340  -23.1338    5.6132 H         1 UNK         0.0808 
    151 H151      -49.2214  -21.8641    6.8058 H         1 UNK         0.0808 
    152 H152      -48.2276  -25.2026    5.9494 H         1 UNK         0.3098 
    153 H153      -46.8036  -27.1570    5.8644 H         1 UNK         0.0720 
    154 H154      -46.5177  -29.4032    6.8963 H         1 UNK         0.0791 
    155 H155      -47.1893  -28.8171    8.4180 H         1 UNK         0.0791 
    156 H156      -45.6581  -28.1867    7.8274 H         1 UNK         0.0791 
    157 H157      -49.1334  -28.5840    6.9560 H         1 UNK         0.3028 
@<TRIPOS>BOND
     1    1    2 1    
     2    1   82 1    
     3    1   83 1    
     4    1   84 1    
     5    2    3 2    
     6    2    4 am   BACKBONE|DICT|INTERRES
     7    4    5 1    
     8    4   85 1    
     9    5    6 1    
    10    5   80 1    
    11    5   86 1    
    12    6    7 1    
    13    6   87 1    
    14    6   88 1    
    15    7    8 1    
    16    8    9 1    
    17    8   89 1    
    18    8   90 1    
    19    9   10 ar   
    20    9   14 ar   
    21   10   11 ar   
    22   10   91 1    
    23   11   12 ar   
    24   11   58 1    
    25   12   13 ar   
    26   12   92 1    
    27   13   14 ar   
    28   13   15 1    
    29   14   93 1    
    30   15   16 1    
    31   15   94 1    
    32   15   95 1    
    33   16   17 1    
    34   17   18 1    
    35   17   96 1    
    36   17   97 1    
    37   18   19 1    
    38   18   22 1    
    39   18   98 1    
    40   19   20 am   BACKBONE|DICT|INTERRES
    41   19   21 2    
    42   20   99 1    
    43   20  100 1    
    44   22   23 am   BACKBONE|DICT|INTERRES
    45   22  101 1    
    46   23   24 2    
    47   23   25 1    
    48   25   26 1    
    49   25   27 1    
    50   25  102 1    
    51   26  103 1    
    52   26  104 1    
    53   26  105 1    
    54   27   28 am   BACKBONE|DICT|INTERRES
    55   27  106 1    
    56   28   29 2    
    57   28   30 1    
    58   30   31 1    
    59   30   32 1    
    60   30  107 1    
    61   31  108 1    
    62   31  109 1    
    63   31  110 1    
    64   32   33 am   BACKBONE|DICT|INTERRES
    65   32  111 1    
    66   33   34 2    
    67   33   35 1    
    68   35   36 1    
    69   35   37 1    
    70   35  112 1    
    71   36  113 1    
    72   36  114 1    
    73   36  115 1    
    74   37   38 am   BACKBONE|DICT|INTERRES
    75   37  116 1    
    76   38   39 2    
    77   38   40 1    
    78   40   41 1    
    79   40   42 1    
    80   40  117 1    
    81   41  118 1    
    82   41  119 1    
    83   41  120 1    
    84   42   43 am   BACKBONE|DICT|INTERRES
    85   42  121 1    
    86   43   44 2    
    87   43   45 1    
    88   45   46 1    
    89   45   47 1    
    90   45  122 1    
    91   46  123 1    
    92   46  124 1    
    93   46  125 1    
    94   47   48 am   BACKBONE|DICT|INTERRES
    95   47  126 1    
    96   48   49 2    
    97   48   50 1    
    98   50   51 1    
    99   50   52 1    
   100   50  127 1    
   101   51  128 1    
   102   51  129 1    
   103   51  130 1    
   104   52   53 am   BACKBONE|DICT|INTERRES
   105   52  131 1    
   106   53   54 2    
   107   53   55 1    
   108   55   56 1    
   109   55   59 1    
   110   55  132 1    
   111   56   57 1    
   112   56  133 1    
   113   56  134 1    
   114   57   58 1    
   115   58  135 1    
   116   58  136 1    
   117   59   60 am   BACKBONE|DICT|INTERRES
   118   59  137 1    
   119   60   61 2    
   120   60   62 1    
   121   62   63 1    
   122   62   64 1    
   123   62  138 1    
   124   63  139 1    
   125   63  140 1    
   126   63  141 1    
   127   64   65 am   BACKBONE|DICT|INTERRES
   128   64  142 1    
   129   65   66 2    
   130   65   67 1    
   131   67   68 1    
   132   67   69 1    
   133   67  143 1    
   134   68  144 1    
   135   68  145 1    
   136   68  146 1    
   137   69   70 am   BACKBONE|DICT|INTERRES
   138   69  147 1    
   139   70   71 2    
   140   70   72 1    
   141   72   73 1    
   142   72   74 1    
   143   72  148 1    
   144   73  149 1    
   145   73  150 1    
   146   73  151 1    
   147   74   75 am   BACKBONE|DICT|INTERRES
   148   74  152 1    
   149   75   76 2    
   150   75   77 1    
   151   77   78 1    
   152   77   79 1    
   153   77  153 1    
   154   78  154 1    
   155   78  155 1    
   156   78  156 1    
   157   79   80 am   BACKBONE|DICT|INTERRES
   158   79  157 1    
   159   80   81 2    
@<TRIPOS>SUBSTRUCTURE
     1 UNK         1 GROUP             0       ****    0 ROOT    
