@<TRIPOS>MOLECULE
3R207
157   159    1
SMALL
USER_CHARGES


@<TRIPOS>ATOM
      1 CA        -46.3300  -28.3123    4.5134 C.3       0 UNK        -0.1975 
      2 C         -47.1081  -27.0485    4.8456 C.2       0 UNK         0.4852 
      3 O         -46.6143  -25.9456    4.6056 O.2       0 UNK        -0.5216 
      4 N         -48.3156  -27.1977    5.4068 N.am      1 UNK        -0.4461 
      5 CA        -49.2168  -26.1091    5.8038 C.3       1 UNK         0.0864 
      6 C6        -50.5899  -26.6358    6.2903 C.3       14 UNK        -0.0898 
      7 S7        -51.3946  -27.7419    5.0796 S.3       14 UNK        -0.2598 
      8 C8        -53.1153  -27.7936    5.7009 C.3       14 UNK         0.0286 
      9 C9        -53.3063  -28.3696    7.1073 C.ar      14 UNK        -0.0844 
     10 C10       -52.3211  -29.1247    7.7563 C.ar      14 UNK        -0.0881 
     11 C11       -52.5086  -29.5781    9.0631 C.ar      14 UNK        -0.0643 
     12 C12       -53.7156  -29.3168    9.7150 C.ar      14 UNK        -0.0930 
     13 C13       -54.7367  -28.6170    9.0619 C.ar      14 UNK        -0.0827 
     14 C14       -54.5184  -28.1371    7.7662 C.ar      14 UNK        -0.1249 
     15 C15       -56.0629  -28.3552    9.7641 C.3       14 UNK         0.0141 
     16 S16       -56.8557  -29.9030   10.3223 S.3       14 UNK        -0.2313 
     17 C17       -58.0920  -29.2762   11.5156 C.3       14 UNK        -0.0915 
     18 CA        -57.5996  -29.2873   12.9907 C.3       13 UNK         0.0968 
     19 C         -57.5338  -30.7197   13.6016 C.2       13 UNK         0.5732 
     20 N         -56.4047  -31.1782   14.1323 N.am      13 UNK        -0.7310 
     21 O         -58.5389  -31.4266   13.6095 O.2       13 UNK        -0.5035 
     22 N         -56.3625  -28.5137   13.1166 N.am      13 UNK        -0.4233 
     23 C         -55.9105  -27.9034   14.2119 C.2       13 UNK         0.4989 
     24 O         -56.5139  -27.8403   15.2848 O.2       13 UNK        -0.4996 
     25 CA        -54.5363  -27.2390   14.0484 C.3       12 UNK         0.0216 
     26 CB        -54.6710  -25.7073   14.0690 C.3       12 UNK        -0.1964 
     27 N         -53.5524  -27.6782   15.0402 N.am      12 UNK        -0.4276 
     28 C         -53.2081  -28.9547   15.2797 C.2       12 UNK         0.5020 
     29 O         -53.6929  -29.9118   14.6713 O.2       12 UNK        -0.5489 
     30 CA        -52.1245  -29.2344   16.3436 C.3       11 UNK         0.0294 
     31 CB        -50.8497  -29.7811   15.6784 C.3       11 UNK        -0.2019 
     32 N         -51.7620  -28.0696   17.1535 N.am      11 UNK        -0.4493 
     33 C         -52.5272  -27.5057   18.0976 C.2       11 UNK         0.4932 
     34 O         -53.5936  -27.9828   18.4851 O.2       11 UNK        -0.5029 
     35 CA        -52.0379  -26.1688   18.6962 C.3       10 UNK         0.0280 
     36 CB        -51.4711  -26.3930   20.1078 C.3       10 UNK        -0.1976 
     37 N         -51.0442  -25.4387   17.8914 N.am      10 UNK        -0.4242 
     38 C         -51.2040  -25.0349   16.6224 C.2       10 UNK         0.5072 
     39 O         -52.2039  -25.2912   15.9517 O.2       10 UNK        -0.5224 
     40 CA        -50.0157  -24.2906   15.9872 C.3       9 UNK         0.0343 
     41 CB        -48.8489  -25.2621   15.7367 C.3       9 UNK        -0.2003 
     42 N         -50.3615  -23.6357   14.7203 N.am      9 UNK        -0.4272 
     43 C         -51.1820  -22.5821   14.5991 C.2       9 UNK         0.4988 
     44 O         -51.7067  -22.0193   15.5618 O.2       9 UNK        -0.5108 
     45 CA        -51.4577  -22.0287   13.1902 C.3       8 UNK         0.0248 
     46 CB        -50.5366  -20.8323   12.8933 C.3       8 UNK        -0.2001 
     47 N         -51.3190  -23.0201   12.1159 N.am      8 UNK        -0.4140 
     48 C         -52.1717  -23.1425   11.0848 C.2       8 UNK         0.5028 
     49 O         -53.2047  -22.4806   10.9707 O.2       8 UNK        -0.5428 
     50 CA        -51.8130  -24.1391    9.9612 C.3       7 UNK         0.0264 
     51 CB        -51.1174  -23.3933    8.8124 C.3       7 UNK        -0.1988 
     52 N         -50.9650  -25.2462   10.4100 N.am      7 UNK        -0.4454 
     53 C         -51.3813  -26.2038   11.2508 C.2       7 UNK         0.5027 
     54 O         -52.5669  -26.3677   11.5300 O.2       7 UNK        -0.5083 
     55 CA        -50.3211  -27.0731   11.9693 C.3       6 UNK         0.0844 
     56 C56       -50.5710  -28.5943   11.8060 C.3       14 UNK        -0.0967 
     57 S57       -50.0079  -29.2802   10.2106 S.3       14 UNK        -0.2604 
     58 C58       -51.4007  -30.3587    9.7513 C.3       14 UNK         0.0134 
     59 N         -48.9211  -26.7072   11.7135 N.am      6 UNK        -0.4116 
     60 C         -48.3247  -25.5474   12.0150 C.2       5 UNK         0.5034 
     61 O         -48.9240  -24.5972   12.5193 O.2       5 UNK        -0.5045 
     62 CA        -46.8342  -25.3799   11.6711 C.3       5 UNK         0.0224 
     63 CB        -45.9498  -25.6364   12.9057 C.3       5 UNK        -0.1978 
     64 N         -46.3715  -26.1496   10.5072 N.am      5 UNK        -0.4737 
     65 C         -46.2382  -27.4766   10.3566 C.2       4 UNK         0.5027 
     66 O         -46.5150  -28.2901   11.2370 O.2       4 UNK        -0.5211 
     67 CA        -45.7546  -27.9923    8.9878 C.3       4 UNK         0.0297 
     68 CB        -46.8305  -28.8713    8.3276 C.3       4 UNK        -0.1993 
     69 N         -45.4081  -26.9003    8.0750 N.am      4 UNK        -0.4486 
     70 C         -44.1950  -26.3381    7.9770 C.2       3 UNK         0.4961 
     71 O         -43.2028  -26.7433    8.5823 O.2       3 UNK        -0.5105 
     72 CA        -44.0636  -25.1019    7.0681 C.3       3 UNK         0.0299 
     73 CB        -43.4145  -25.4804    5.7270 C.3       3 UNK        -0.1972 
     74 N         -45.3448  -24.4296    6.8243 N.am      3 UNK        -0.4305 
     75 C         -45.9758  -23.6646    7.7296 C.2       2 UNK         0.5006 
     76 O         -45.5293  -23.4323    8.8528 O.2       2 UNK        -0.5106 
     77 CA        -47.3594  -23.1066    7.3484 C.3       2 UNK         0.0296 
     78 CB        -47.2216  -21.7446    6.6505 C.3       2 UNK        -0.2002 
     79 N         -48.1388  -24.0153    6.5033 N.am      2 UNK        -0.4032 
     80 C         -48.5501  -25.2329    6.8829 C.2       1 UNK         0.5000 
     81 O         -48.3709  -25.6900    8.0144 O.2       1 UNK        -0.5238 
     82 H82       -46.9174  -29.2121    4.6956 H         1 UNK         0.0889 
     83 H83       -45.4263  -28.3669    5.1196 H         1 UNK         0.0889 
     84 H84       -46.0372  -28.3064    3.4639 H         1 UNK         0.0889 
     85 H85       -48.6749  -28.1268    5.5723 H         1 UNK         0.3028 
     86 H86       -49.3923  -25.4959    4.9173 H         1 UNK         0.0864 
     87 H87       -51.2666  -25.8031    6.4859 H         1 UNK         0.0720 
     88 H88       -50.4790  -27.1686    7.2362 H         1 UNK         0.0720 
     89 H89       -53.7113  -28.3852    5.0049 H         1 UNK         0.0814 
     90 H90       -53.5195  -26.7807    5.6668 H         1 UNK         0.0814 
     91 H91       -51.3859  -29.3493    7.2646 H         1 UNK         0.1469 
     92 H92       -53.8676  -29.6723   10.7247 H         1 UNK         0.1381 
     93 H93       -55.2954  -27.5738    7.2670 H         1 UNK         0.1206 
     94 H94       -56.7558  -27.8315    9.1036 H         1 UNK         0.0813 
     95 H95       -55.8805  -27.6857   10.6039 H         1 UNK         0.0813 
     96 H96       -59.0039  -29.8664   11.4092 H         1 UNK         0.0638 
     97 H97       -58.3716  -28.2609   11.2299 H         1 UNK         0.0638 
     98 H98       -58.3597  -28.7697   13.5784 H         1 UNK         0.0568 
     99 H99       -56.3930  -32.1058   14.5243 H         1 UNK         0.3450 
    100 H100      -55.5646  -30.6112   14.1670 H         1 UNK         0.3450 
    101 H101      -55.7663  -28.5456   12.3044 H         1 UNK         0.2987 
    102 H102      -54.1377  -27.5298   13.0766 H         1 UNK         0.0766 
    103 H103      -55.4243  -25.3689   13.3564 H         1 UNK         0.0798 
    104 H104      -53.7338  -25.2238   13.7923 H         1 UNK         0.0798 
    105 H105      -54.9611  -25.3414   15.0547 H         1 UNK         0.0798 
    106 H106      -53.0866  -26.9356   15.5565 H         1 UNK         0.3198 
    107 H107      -52.5223  -30.0036   17.0091 H         1 UNK         0.0843 
    108 H108      -50.3837  -29.0389   15.0298 H         1 UNK         0.0831 
    109 H109      -51.0699  -30.6573   15.0667 H         1 UNK         0.0831 
    110 H110      -50.1138  -30.0869   16.4224 H         1 UNK         0.0831 
    111 H111      -50.8998  -27.6040   16.9133 H         1 UNK         0.3133 
    112 H112      -52.9144  -25.5234   18.7811 H         1 UNK         0.0566 
    113 H113      -50.5685  -27.0051   20.0876 H         1 UNK         0.0814 
    114 H114      -51.2276  -25.4484   20.5946 H         1 UNK         0.0814 
    115 H115      -52.1956  -26.9033   20.7444 H         1 UNK         0.0814 
    116 H116      -50.1816  -25.2022   18.3612 H         1 UNK         0.3091 
    117 H117      -49.6870  -23.5192   16.6867 H         1 UNK         0.0702 
    118 H118      -49.1289  -26.0617   15.0499 H         1 UNK         0.0785 
    119 H119      -47.9911  -24.7413   15.3123 H         1 UNK         0.0785 
    120 H120      -48.5097  -25.7297   16.6617 H         1 UNK         0.0785 
    121 H121      -49.9207  -24.0207   13.8899 H         1 UNK         0.2998 
    122 H122      -52.4861  -21.6620   13.2166 H         1 UNK         0.0697 
    123 H123      -49.4905  -21.1360   12.8350 H         1 UNK         0.0825 
    124 H124      -50.6148  -20.0729   13.6727 H         1 UNK         0.0825 
    125 H125      -50.8003  -20.3546   11.9496 H         1 UNK         0.0825 
    126 H126      -50.4877  -23.6037   12.1361 H         1 UNK         0.3029 
    127 H127      -52.7483  -24.5578    9.5823 H         1 UNK         0.0897 
    128 H128      -51.7215  -22.5523    8.4688 H         1 UNK         0.0792 
    129 H129      -50.9634  -24.0436    7.9551 H         1 UNK         0.0792 
    130 H130      -50.1496  -22.9953    9.1178 H         1 UNK         0.0792 
    131 H131      -49.9816  -25.1985   10.1828 H         1 UNK         0.3086 
    132 H132      -50.4846  -26.8574   13.0275 H         1 UNK         0.0583 
    133 H133      -50.0314  -29.1300   12.5878 H         1 UNK         0.1020 
    134 H134      -51.6236  -28.8330   11.9717 H         1 UNK         0.1020 
    135 H135      -51.0344  -31.1297    9.0719 H         1 UNK         0.0694 
    136 H136      -51.7734  -30.8833   10.6325 H         1 UNK         0.0694 
    137 H137      -48.3385  -27.4383   11.3189 H         1 UNK         0.2989 
    138 H138      -46.7068  -24.3325   11.3912 H         1 UNK         0.1055 
    139 H139      -46.1979  -24.9441   13.7107 H         1 UNK         0.0806 
    140 H140      -44.8944  -25.4942   12.6737 H         1 UNK         0.0806 
    141 H141      -46.0751  -26.6465   13.2969 H         1 UNK         0.0806 
    142 H142      -46.1495  -25.5817    9.7001 H         1 UNK         0.3061 
    143 H143      -44.8746  -28.6135    9.1675 H         1 UNK         0.0734 
    144 H144      -46.4855  -29.2772    7.3774 H         1 UNK         0.0832 
    145 H145      -47.0847  -29.7201    8.9640 H         1 UNK         0.0832 
    146 H146      -47.7525  -28.3177    8.1473 H         1 UNK         0.0832 
    147 H147      -46.1799  -26.4747    7.5796 H         1 UNK         0.3156 
    148 H148      -43.3991  -24.3964    7.5719 H         1 UNK         0.0589 
    149 H149      -44.0080  -26.2109    5.1778 H         1 UNK         0.0808 
    150 H150      -43.2830  -24.6067    5.0885 H         1 UNK         0.0808 
    151 H151      -42.4274  -25.9177    5.8830 H         1 UNK         0.0808 
    152 H152      -45.7981  -24.6271    5.9365 H         1 UNK         0.3098 
    153 H153      -47.9136  -22.9576    8.2768 H         1 UNK         0.0720 
    154 H154      -48.1970  -21.2970    6.4581 H         1 UNK         0.0791 
    155 H155      -46.6955  -21.8283    5.6986 H         1 UNK         0.0791 
    156 H156      -46.6625  -21.0432    7.2715 H         1 UNK         0.0791 
    157 H157      -48.2895  -23.7267    5.5469 H         1 UNK         0.3028 
@<TRIPOS>BOND
     1    1    2 1    
     2    1   82 1    
     3    1   83 1    
     4    1   84 1    
     5    2    3 2    
     6    2    4 am   BACKBONE|DICT|INTERRES
     7    4    5 1    
     8    4   85 1    
     9    5    6 1    
    10    5   80 1    
    11    5   86 1    
    12    6    7 1    
    13    6   87 1    
    14    6   88 1    
    15    7    8 1    
    16    8    9 1    
    17    8   89 1    
    18    8   90 1    
    19    9   10 ar   
    20    9   14 ar   
    21   10   11 ar   
    22   10   91 1    
    23   11   12 ar   
    24   11   58 1    
    25   12   13 ar   
    26   12   92 1    
    27   13   14 ar   
    28   13   15 1    
    29   14   93 1    
    30   15   16 1    
    31   15   94 1    
    32   15   95 1    
    33   16   17 1    
    34   17   18 1    
    35   17   96 1    
    36   17   97 1    
    37   18   19 1    
    38   18   22 1    
    39   18   98 1    
    40   19   20 am   BACKBONE|DICT|INTERRES
    41   19   21 2    
    42   20   99 1    
    43   20  100 1    
    44   22   23 am   BACKBONE|DICT|INTERRES
    45   22  101 1    
    46   23   24 2    
    47   23   25 1    
    48   25   26 1    
    49   25   27 1    
    50   25  102 1    
    51   26  103 1    
    52   26  104 1    
    53   26  105 1    
    54   27   28 am   BACKBONE|DICT|INTERRES
    55   27  106 1    
    56   28   29 2    
    57   28   30 1    
    58   30   31 1    
    59   30   32 1    
    60   30  107 1    
    61   31  108 1    
    62   31  109 1    
    63   31  110 1    
    64   32   33 am   BACKBONE|DICT|INTERRES
    65   32  111 1    
    66   33   34 2    
    67   33   35 1    
    68   35   36 1    
    69   35   37 1    
    70   35  112 1    
    71   36  113 1    
    72   36  114 1    
    73   36  115 1    
    74   37   38 am   BACKBONE|DICT|INTERRES
    75   37  116 1    
    76   38   39 2    
    77   38   40 1    
    78   40   41 1    
    79   40   42 1    
    80   40  117 1    
    81   41  118 1    
    82   41  119 1    
    83   41  120 1    
    84   42   43 am   BACKBONE|DICT|INTERRES
    85   42  121 1    
    86   43   44 2    
    87   43   45 1    
    88   45   46 1    
    89   45   47 1    
    90   45  122 1    
    91   46  123 1    
    92   46  124 1    
    93   46  125 1    
    94   47   48 am   BACKBONE|DICT|INTERRES
    95   47  126 1    
    96   48   49 2    
    97   48   50 1    
    98   50   51 1    
    99   50   52 1    
   100   50  127 1    
   101   51  128 1    
   102   51  129 1    
   103   51  130 1    
   104   52   53 am   BACKBONE|DICT|INTERRES
   105   52  131 1    
   106   53   54 2    
   107   53   55 1    
   108   55   56 1    
   109   55   59 1    
   110   55  132 1    
   111   56   57 1    
   112   56  133 1    
   113   56  134 1    
   114   57   58 1    
   115   58  135 1    
   116   58  136 1    
   117   59   60 am   BACKBONE|DICT|INTERRES
   118   59  137 1    
   119   60   61 2    
   120   60   62 1    
   121   62   63 1    
   122   62   64 1    
   123   62  138 1    
   124   63  139 1    
   125   63  140 1    
   126   63  141 1    
   127   64   65 am   BACKBONE|DICT|INTERRES
   128   64  142 1    
   129   65   66 2    
   130   65   67 1    
   131   67   68 1    
   132   67   69 1    
   133   67  143 1    
   134   68  144 1    
   135   68  145 1    
   136   68  146 1    
   137   69   70 am   BACKBONE|DICT|INTERRES
   138   69  147 1    
   139   70   71 2    
   140   70   72 1    
   141   72   73 1    
   142   72   74 1    
   143   72  148 1    
   144   73  149 1    
   145   73  150 1    
   146   73  151 1    
   147   74   75 am   BACKBONE|DICT|INTERRES
   148   74  152 1    
   149   75   76 2    
   150   75   77 1    
   151   77   78 1    
   152   77   79 1    
   153   77  153 1    
   154   78  154 1    
   155   78  155 1    
   156   78  156 1    
   157   79   80 am   BACKBONE|DICT|INTERRES
   158   79  157 1    
   159   80   81 2    
@<TRIPOS>SUBSTRUCTURE
     1 UNK         1 GROUP             0       ****    0 ROOT    
