@<TRIPOS>MOLECULE
3R207
157   159    1
SMALL
USER_CHARGES


@<TRIPOS>ATOM
      1 CA        -48.3484  -27.9968    2.7914 C.3       0 UNK        -0.1975 
      2 C         -48.6013  -27.7224    4.2661 C.2       0 UNK         0.4852 
      3 O         -47.7203  -27.1968    4.9459 O.2       0 UNK        -0.5216 
      4 N         -49.8029  -28.0596    4.7557 N.am      1 UNK        -0.4461 
      5 CA        -50.2975  -27.9406    6.1396 C.3       1 UNK         0.0864 
      6 C6        -49.4735  -28.7250    7.1988 C.3       14 UNK        -0.0898 
      7 S7        -49.2189  -30.4763    6.7537 S.3       14 UNK        -0.2598 
      8 C8        -50.6826  -31.2727    7.5036 C.3       14 UNK         0.0286 
      9 C9        -50.6715  -31.4063    9.0283 C.ar      14 UNK        -0.0844 
     10 C10       -49.5026  -31.3005    9.7935 C.ar      14 UNK        -0.0881 
     11 C11       -49.5400  -31.4643   11.1813 C.ar      14 UNK        -0.0643 
     12 C12       -50.7574  -31.7392   11.8108 C.ar      14 UNK        -0.0930 
     13 C13       -51.9324  -31.8619   11.0639 C.ar      14 UNK        -0.0827 
     14 C14       -51.8768  -31.6969    9.6751 C.ar      14 UNK        -0.1249 
     15 C15       -53.2379  -32.2460   11.7562 C.3       14 UNK         0.0141 
     16 S16       -54.6744  -31.2661   11.2073 S.3       14 UNK        -0.2313 
     17 C17       -54.4305  -29.6974   12.1017 C.3       14 UNK        -0.0915 
     18 CA        -55.5997  -29.3940   13.0851 C.3       13 UNK         0.0968 
     19 C         -55.3518  -29.9304   14.5266 C.2       13 UNK         0.5732 
     20 N         -55.6739  -29.1885   15.5815 N.am      13 UNK        -0.7310 
     21 O         -54.8763  -31.0494   14.7006 O.2       13 UNK        -0.5035 
     22 N         -55.9348  -27.9649   13.0653 N.am      13 UNK        -0.4233 
     23 C         -57.1377  -27.4443   12.7978 C.2       13 UNK         0.4989 
     24 O         -58.1138  -28.1159   12.4582 O.2       13 UNK        -0.4996 
     25 CA        -57.2761  -25.9121   12.9207 C.3       12 UNK         0.0216 
     26 CB        -58.7307  -25.4658   13.1828 C.3       12 UNK        -0.1964 
     27 N         -56.3681  -25.3000   13.9002 N.am      12 UNK        -0.4276 
     28 C         -56.2912  -25.5507   15.2179 C.2       12 UNK         0.5020 
     29 O         -56.9769  -26.4020   15.7866 O.2       12 UNK        -0.5489 
     30 CA        -55.2557  -24.7483   16.0337 C.3       11 UNK         0.0294 
     31 CB        -54.5935  -25.6158   17.1204 C.3       11 UNK        -0.2019 
     32 N         -54.2081  -24.1924   15.1760 N.am      11 UNK        -0.4493 
     33 C         -54.1770  -22.9493   14.6761 C.2       11 UNK         0.4932 
     34 O         -54.9941  -22.0753   14.9634 O.2       11 UNK        -0.5029 
     35 CA        -53.0749  -22.6410   13.6442 C.3       10 UNK         0.0280 
     36 CB        -51.9121  -21.8834   14.3042 C.3       10 UNK        -0.1976 
     37 N         -52.5724  -23.8496   12.9786 N.am      10 UNK        -0.4242 
     38 C         -53.2763  -24.5532   12.0757 C.2       10 UNK         0.5072 
     39 O         -54.3859  -24.2102   11.6669 O.2       10 UNK        -0.5224 
     40 CA        -52.6935  -25.8964   11.5985 C.3       9 UNK         0.0343 
     41 CB        -51.9024  -25.7186   10.2982 C.3       9 UNK        -0.2003 
     42 N         -51.8523  -26.5542   12.6006 N.am      9 UNK        -0.4272 
     43 C         -52.3163  -27.0229   13.7693 C.2       9 UNK         0.4988 
     44 O         -53.5023  -26.9710   14.0885 O.2       9 UNK        -0.5108 
     45 CA        -51.3036  -27.5943   14.7761 C.3       8 UNK         0.0248 
     46 CB        -51.2078  -29.1194   14.6207 C.3       8 UNK        -0.2001 
     47 N         -49.9687  -27.0005   14.6657 N.am      8 UNK        -0.4140 
     48 C         -49.6957  -25.6930   14.7976 C.2       8 UNK         0.5028 
     49 O         -50.5408  -24.8496   15.0955 O.2       8 UNK        -0.5428 
     50 CA        -48.2595  -25.2336   14.4877 C.3       7 UNK         0.0264 
     51 CB        -47.4614  -25.0521   15.7882 C.3       7 UNK        -0.1988 
     52 N         -47.5219  -26.1240   13.5836 N.am      7 UNK        -0.4454 
     53 C         -47.8945  -26.4313   12.3328 C.2       7 UNK         0.5027 
     54 O         -48.9343  -26.0317   11.8072 O.2       7 UNK        -0.5083 
     55 CA        -46.9849  -27.3959   11.5640 C.3       6 UNK         0.0844 
     56 C56       -47.6992  -28.7267   11.2276 C.3       14 UNK        -0.0967 
     57 S57       -48.0180  -29.7297   12.7191 S.3       14 UNK        -0.2604 
     58 C58       -48.2580  -31.3806   11.9970 C.3       14 UNK         0.0134 
     59 N         -46.5146  -26.7033   10.3716 N.am      6 UNK        -0.4116 
     60 C         -45.3154  -26.8904    9.8078 C.2       5 UNK         0.5034 
     61 O         -44.4924  -27.7176   10.2017 O.2       5 UNK        -0.5045 
     62 CA        -44.9579  -25.9939    8.6150 C.3       5 UNK         0.0224 
     63 CB        -45.5790  -26.5403    7.3207 C.3       5 UNK        -0.1978 
     64 N         -45.4004  -24.6150    8.8299 N.am      5 UNK        -0.4737 
     65 C         -44.6619  -23.6674    9.4246 C.2       4 UNK         0.5027 
     66 O         -43.5135  -23.8524    9.8280 O.2       4 UNK        -0.5211 
     67 CA        -45.2906  -22.2702    9.5853 C.3       4 UNK         0.0297 
     68 CB        -44.8192  -21.3410    8.4548 C.3       4 UNK        -0.1993 
     69 N         -46.7540  -22.2956    9.6033 N.am      4 UNK        -0.4486 
     70 C         -47.4953  -22.7032   10.6426 C.2       3 UNK         0.4961 
     71 O         -47.0266  -23.0174   11.7362 O.2       3 UNK        -0.5105 
     72 CA        -49.0165  -22.7948   10.4146 C.3       3 UNK         0.0299 
     73 CB        -49.7100  -21.5050   10.8796 C.3       3 UNK        -0.1972 
     74 N         -49.4043  -23.0841    9.0254 N.am      3 UNK        -0.4305 
     75 C         -49.0407  -24.1740    8.3339 C.2       2 UNK         0.5006 
     76 O         -48.3110  -25.0594    8.7852 O.2       2 UNK        -0.5106 
     77 CA        -49.4911  -24.2351    6.8670 C.3       2 UNK         0.0296 
     78 CB        -48.5147  -23.4411    5.9830 C.3       2 UNK        -0.2002 
     79 N         -49.5252  -25.6172    6.3937 N.am      2 UNK        -0.4032 
     80 C         -50.5255  -26.4821    6.5914 C.2       1 UNK         0.5000 
     81 O         -51.6069  -26.1694    7.0904 O.2       1 UNK        -0.5238 
     82 H82       -49.2069  -28.4636    2.3089 H         1 UNK         0.0889 
     83 H83       -47.4925  -28.6614    2.6771 H         1 UNK         0.0889 
     84 H84       -48.1294  -27.0658    2.2694 H         1 UNK         0.0889 
     85 H85       -50.4745  -28.4610    4.1161 H         1 UNK         0.3028 
     86 H86       -51.2889  -28.3960    6.1157 H         1 UNK         0.0864 
     87 H87       -48.4901  -28.2719    7.3340 H         1 UNK         0.0720 
     88 H88       -49.9596  -28.6762    8.1754 H         1 UNK         0.0720 
     89 H89       -50.7744  -32.2734    7.0794 H         1 UNK         0.0814 
     90 H90       -51.5731  -30.7259    7.1897 H         1 UNK         0.0814 
     91 H91       -48.5534  -31.1037    9.3165 H         1 UNK         0.1469 
     92 H92       -50.7820  -31.8797   12.8828 H         1 UNK         0.1381 
     93 H93       -52.7792  -31.8111    9.0900 H         1 UNK         0.1206 
     94 H94       -53.1457  -32.1653   12.8405 H         1 UNK         0.0813 
     95 H95       -53.4382  -33.2970   11.5449 H         1 UNK         0.0813 
     96 H96       -53.4623  -29.6863   12.6045 H         1 UNK         0.0638 
     97 H97       -54.3649  -28.9245   11.3345 H         1 UNK         0.0638 
     98 H98       -56.4753  -29.9490   12.7454 H         1 UNK         0.0568 
     99 H99       -55.5124  -29.5582   16.5039 H         1 UNK         0.3450 
    100 H100      -56.0968  -28.2742   15.4735 H         1 UNK         0.3450 
    101 H101      -55.1884  -27.3588   13.3972 H         1 UNK         0.2987 
    102 H102      -56.9804  -25.5116   11.9498 H         1 UNK         0.0766 
    103 H103      -59.1176  -25.8796   14.1147 H         1 UNK         0.0798 
    104 H104      -58.8085  -24.3801   13.2399 H         1 UNK         0.0798 
    105 H105      -59.3939  -25.7932   12.3812 H         1 UNK         0.0798 
    106 H106      -55.7242  -24.6203   13.5153 H         1 UNK         0.3198 
    107 H107      -55.7967  -23.9397   16.5296 H         1 UNK         0.0843 
    108 H108      -55.3312  -25.9765   17.8383 H         1 UNK         0.0831 
    109 H109      -53.8491  -25.0504   17.6813 H         1 UNK         0.0831 
    110 H110      -54.1002  -26.4903   16.6948 H         1 UNK         0.0831 
    111 H111      -53.5124  -24.8553   14.8576 H         1 UNK         0.3133 
    112 H112      -53.5078  -21.9908   12.8810 H         1 UNK         0.0566 
    113 H113      -51.1132  -21.6774   13.5933 H         1 UNK         0.0814 
    114 H114      -52.2506  -20.9240   14.6977 H         1 UNK         0.0814 
    115 H115      -51.4850  -22.4392   15.1389 H         1 UNK         0.0814 
    116 H116      -51.6962  -24.2244   13.3235 H         1 UNK         0.3091 
    117 H117      -53.5363  -26.5579   11.3880 H         1 UNK         0.0702 
    118 H118      -51.5470  -26.6747    9.9132 H         1 UNK         0.0785 
    119 H119      -51.0364  -25.0759   10.4405 H         1 UNK         0.0785 
    120 H120      -52.5212  -25.2650    9.5229 H         1 UNK         0.0785 
    121 H121      -50.8560  -26.5852   12.4080 H         1 UNK         0.2998 
    122 H122      -51.6771  -27.3730   15.7780 H         1 UNK         0.0697 
    123 H123      -50.8878  -29.4001   13.6170 H         1 UNK         0.0825 
    124 H124      -52.1763  -29.5897   14.7964 H         1 UNK         0.0825 
    125 H125      -50.5054  -29.5527   15.3328 H         1 UNK         0.0825 
    126 H126      -49.2151  -27.6202   14.4048 H         1 UNK         0.3029 
    127 H127      -48.3361  -24.2624   13.9934 H         1 UNK         0.0897 
    128 H128      -46.4773  -24.6248   15.5939 H         1 UNK         0.0792 
    129 H129      -47.9767  -24.3739   16.4702 H         1 UNK         0.0792 
    130 H130      -47.3219  -25.9981   16.3129 H         1 UNK         0.0792 
    131 H131      -46.6599  -26.5117   13.9401 H         1 UNK         0.3086 
    132 H132      -46.1208  -27.6192   12.1943 H         1 UNK         0.0583 
    133 H133      -48.6389  -28.5488   10.6998 H         1 UNK         0.1020 
    134 H134      -47.0765  -29.3117   10.5491 H         1 UNK         0.1020 
    135 H135      -47.3930  -31.6425   11.3857 H         1 UNK         0.0694 
    136 H136      -48.2901  -32.1139   12.8042 H         1 UNK         0.0694 
    137 H137      -47.1609  -26.0243    9.9732 H         1 UNK         0.2989 
    138 H138      -43.8718  -26.0131    8.4978 H         1 UNK         0.1055 
    139 H139      -45.3067  -25.9312    6.4588 H         1 UNK         0.0806 
    140 H140      -46.6667  -26.5729    7.3743 H         1 UNK         0.0806 
    141 H141      -45.2360  -27.5562    7.1202 H         1 UNK         0.0806 
    142 H142      -46.3667  -24.4145    8.6020 H         1 UNK         0.3061 
    143 H143      -44.9395  -21.8581   10.5341 H         1 UNK         0.0734 
    144 H144      -43.7304  -21.2759    8.4330 H         1 UNK         0.0832 
    145 H145      -45.1427  -21.6972    7.4758 H         1 UNK         0.0832 
    146 H146      -45.1990  -20.3279    8.5879 H         1 UNK         0.0832 
    147 H147      -47.2278  -22.0334    8.7518 H         1 UNK         0.3156 
    148 H148      -49.3809  -23.6093   11.0400 H         1 UNK         0.0589 
    149 H149      -50.7950  -21.6130   10.8723 H         1 UNK         0.0808 
    150 H150      -49.4181  -21.2519   11.8998 H         1 UNK         0.0808 
    151 H151      -49.4495  -20.6545   10.2485 H         1 UNK         0.0808 
    152 H152      -49.9890  -22.3969    8.5711 H         1 UNK         0.3098 
    153 H153      -50.4889  -23.7997    6.7805 H         1 UNK         0.0720 
    154 H154      -48.8162  -23.4733    4.9357 H         1 UNK         0.0791 
    155 H155      -47.4990  -23.8347    6.0483 H         1 UNK         0.0791 
    156 H156      -48.4796  -22.3908    6.2748 H         1 UNK         0.0791 
    157 H157      -48.6744  -25.9894    5.9772 H         1 UNK         0.3028 
@<TRIPOS>BOND
     1    1    2 1    
     2    1   82 1    
     3    1   83 1    
     4    1   84 1    
     5    2    3 2    
     6    2    4 am   BACKBONE|DICT|INTERRES
     7    4    5 1    
     8    4   85 1    
     9    5    6 1    
    10    5   80 1    
    11    5   86 1    
    12    6    7 1    
    13    6   87 1    
    14    6   88 1    
    15    7    8 1    
    16    8    9 1    
    17    8   89 1    
    18    8   90 1    
    19    9   10 ar   
    20    9   14 ar   
    21   10   11 ar   
    22   10   91 1    
    23   11   12 ar   
    24   11   58 1    
    25   12   13 ar   
    26   12   92 1    
    27   13   14 ar   
    28   13   15 1    
    29   14   93 1    
    30   15   16 1    
    31   15   94 1    
    32   15   95 1    
    33   16   17 1    
    34   17   18 1    
    35   17   96 1    
    36   17   97 1    
    37   18   19 1    
    38   18   22 1    
    39   18   98 1    
    40   19   20 am   BACKBONE|DICT|INTERRES
    41   19   21 2    
    42   20   99 1    
    43   20  100 1    
    44   22   23 am   BACKBONE|DICT|INTERRES
    45   22  101 1    
    46   23   24 2    
    47   23   25 1    
    48   25   26 1    
    49   25   27 1    
    50   25  102 1    
    51   26  103 1    
    52   26  104 1    
    53   26  105 1    
    54   27   28 am   BACKBONE|DICT|INTERRES
    55   27  106 1    
    56   28   29 2    
    57   28   30 1    
    58   30   31 1    
    59   30   32 1    
    60   30  107 1    
    61   31  108 1    
    62   31  109 1    
    63   31  110 1    
    64   32   33 am   BACKBONE|DICT|INTERRES
    65   32  111 1    
    66   33   34 2    
    67   33   35 1    
    68   35   36 1    
    69   35   37 1    
    70   35  112 1    
    71   36  113 1    
    72   36  114 1    
    73   36  115 1    
    74   37   38 am   BACKBONE|DICT|INTERRES
    75   37  116 1    
    76   38   39 2    
    77   38   40 1    
    78   40   41 1    
    79   40   42 1    
    80   40  117 1    
    81   41  118 1    
    82   41  119 1    
    83   41  120 1    
    84   42   43 am   BACKBONE|DICT|INTERRES
    85   42  121 1    
    86   43   44 2    
    87   43   45 1    
    88   45   46 1    
    89   45   47 1    
    90   45  122 1    
    91   46  123 1    
    92   46  124 1    
    93   46  125 1    
    94   47   48 am   BACKBONE|DICT|INTERRES
    95   47  126 1    
    96   48   49 2    
    97   48   50 1    
    98   50   51 1    
    99   50   52 1    
   100   50  127 1    
   101   51  128 1    
   102   51  129 1    
   103   51  130 1    
   104   52   53 am   BACKBONE|DICT|INTERRES
   105   52  131 1    
   106   53   54 2    
   107   53   55 1    
   108   55   56 1    
   109   55   59 1    
   110   55  132 1    
   111   56   57 1    
   112   56  133 1    
   113   56  134 1    
   114   57   58 1    
   115   58  135 1    
   116   58  136 1    
   117   59   60 am   BACKBONE|DICT|INTERRES
   118   59  137 1    
   119   60   61 2    
   120   60   62 1    
   121   62   63 1    
   122   62   64 1    
   123   62  138 1    
   124   63  139 1    
   125   63  140 1    
   126   63  141 1    
   127   64   65 am   BACKBONE|DICT|INTERRES
   128   64  142 1    
   129   65   66 2    
   130   65   67 1    
   131   67   68 1    
   132   67   69 1    
   133   67  143 1    
   134   68  144 1    
   135   68  145 1    
   136   68  146 1    
   137   69   70 am   BACKBONE|DICT|INTERRES
   138   69  147 1    
   139   70   71 2    
   140   70   72 1    
   141   72   73 1    
   142   72   74 1    
   143   72  148 1    
   144   73  149 1    
   145   73  150 1    
   146   73  151 1    
   147   74   75 am   BACKBONE|DICT|INTERRES
   148   74  152 1    
   149   75   76 2    
   150   75   77 1    
   151   77   78 1    
   152   77   79 1    
   153   77  153 1    
   154   78  154 1    
   155   78  155 1    
   156   78  156 1    
   157   79   80 am   BACKBONE|DICT|INTERRES
   158   79  157 1    
   159   80   81 2    
@<TRIPOS>SUBSTRUCTURE
     1 UNK         1 GROUP             0       ****    0 ROOT    
