@<TRIPOS>MOLECULE
3R207
157   159    1
SMALL
USER_CHARGES


@<TRIPOS>ATOM
      1 CA        -52.3196  -27.3608    0.8284 C.3       0 UNK        -0.1975 
      2 C         -51.3089  -26.9880    1.9023 C.2       0 UNK         0.4852 
      3 O         -50.1308  -26.7963    1.5978 O.2       0 UNK        -0.5216 
      4 N         -51.7525  -26.8976    3.1622 N.am      1 UNK        -0.4461 
      5 CA        -50.9685  -26.5336    4.3511 C.3       1 UNK         0.0864 
      6 C6        -51.8656  -25.9443    5.4789 C.3       14 UNK        -0.0898 
      7 S7        -53.4730  -26.7842    5.7355 S.3       14 UNK        -0.2598 
      8 C8        -53.0750  -28.1128    6.9233 C.3       14 UNK         0.0286 
      9 C9        -52.4476  -27.6399    8.2321 C.ar      14 UNK        -0.0844 
     10 C10       -52.8707  -26.4693    8.8701 C.ar      14 UNK        -0.0881 
     11 C11       -52.2888  -26.0664   10.0753 C.ar      14 UNK        -0.0643 
     12 C12       -51.2818  -26.8471   10.6518 C.ar      14 UNK        -0.0930 
     13 C13       -50.8542  -28.0216   10.0266 C.ar      14 UNK        -0.0827 
     14 C14       -51.4403  -28.4092    8.8198 C.ar      14 UNK        -0.1249 
     15 C15       -49.7502  -28.8679   10.6409 C.3       14 UNK         0.0141 
     16 S16       -50.3319  -29.8428   12.0602 S.3       14 UNK        -0.2313 
     17 C17       -51.4711  -31.0475   11.2903 C.3       14 UNK        -0.0915 
     18 CA        -52.9372  -30.9293   11.7868 C.3       13 UNK         0.0968 
     19 C         -53.0814  -31.3288   13.2871 C.2       13 UNK         0.5732 
     20 N         -53.3982  -30.4136   14.1971 N.am      13 UNK        -0.7310 
     21 O         -52.9150  -32.4983   13.6260 O.2       13 UNK        -0.5035 
     22 N         -53.5286  -29.6301   11.4383 N.am      13 UNK        -0.4233 
     23 C         -54.8423  -29.3758   11.4413 C.2       13 UNK         0.4989 
     24 O         -55.7155  -30.2323   11.5968 O.2       13 UNK        -0.4996 
     25 CA        -55.2529  -27.9026   11.2919 C.3       12 UNK         0.0216 
     26 CB        -56.2705  -27.7059   10.1559 C.3       12 UNK        -0.1964 
     27 N         -55.7931  -27.3740   12.5465 N.am      12 UNK        -0.4276 
     28 C         -55.0831  -27.2477   13.6752 C.2       12 UNK         0.5020 
     29 O         -53.8863  -27.5358   13.7639 O.2       12 UNK        -0.5489 
     30 CA        -55.8459  -26.7677   14.9179 C.3       11 UNK         0.0294 
     31 CB        -56.5816  -27.9463   15.5763 C.3       11 UNK        -0.2019 
     32 N         -54.9035  -26.2096   15.8846 N.am      11 UNK        -0.4493 
     33 C         -54.5809  -24.9184   16.0012 C.2       11 UNK         0.4932 
     34 O         -55.1493  -24.0122   15.3910 O.2       11 UNK        -0.5029 
     35 CA        -53.4146  -24.5761   16.9470 C.3       10 UNK         0.0280 
     36 CB        -53.8151  -24.7256   18.4282 C.3       10 UNK        -0.1976 
     37 N         -52.1723  -25.2979   16.6323 N.am      10 UNK        -0.4242 
     38 C         -51.9164  -26.6117   16.7352 C.2       10 UNK         0.5072 
     39 O         -52.7125  -27.4322   17.1960 O.2       10 UNK        -0.5224 
     40 CA        -50.5596  -27.1136   16.2141 C.3       9 UNK         0.0343 
     41 CB        -50.6825  -27.5526   14.7486 C.3       9 UNK        -0.2003 
     42 N         -49.4707  -26.1426   16.3238 N.am      9 UNK        -0.4272 
     43 C         -48.8713  -25.7951   17.4711 C.2       9 UNK         0.4988 
     44 O         -49.2314  -26.1864   18.5817 O.2       9 UNK        -0.5108 
     45 CA        -47.6471  -24.8752   17.3577 C.3       8 UNK         0.0248 
     46 CB        -46.4149  -25.6723   16.8962 C.3       8 UNK        -0.2001 
     47 N         -47.8955  -23.7808   16.4206 N.am      8 UNK        -0.4140 
     48 C         -48.3082  -22.5560   16.7750 C.2       8 UNK         0.5028 
     49 O         -48.4521  -22.1893   17.9421 O.2       8 UNK        -0.5428 
     50 CA        -48.6217  -21.5641   15.6379 C.3       7 UNK         0.0264 
     51 CB        -47.3982  -20.6814   15.3422 C.3       7 UNK        -0.1988 
     52 N         -49.0650  -22.2060   14.3963 N.am      7 UNK        -0.4454 
     53 C         -50.1916  -22.9224   14.2701 C.2       7 UNK         0.5027 
     54 O         -50.9940  -23.0976   15.1858 O.2       7 UNK        -0.5083 
     55 CA        -50.4488  -23.6015   12.9122 C.3       6 UNK         0.0844 
     56 C56       -51.3548  -22.7106   12.0257 C.3       14 UNK        -0.0967 
     57 S57       -51.6688  -23.4091   10.3703 S.3       14 UNK        -0.2604 
     58 C58       -52.7691  -24.8009   10.7639 C.3       14 UNK         0.0134 
     59 N         -49.2265  -24.0341   12.2249 N.am      6 UNK        -0.4116 
     60 C         -48.3190  -24.8968   12.6984 C.2       5 UNK         0.5034 
     61 O         -48.3393  -25.3295   13.8527 O.2       5 UNK        -0.5045 
     62 CA        -47.2147  -25.3551   11.7240 C.3       5 UNK         0.0224 
     63 CB        -46.4044  -26.5420   12.2792 C.3       5 UNK        -0.1978 
     64 N         -47.7258  -25.7177   10.3961 N.am      5 UNK        -0.4737 
     65 C         -48.0860  -24.8631    9.4294 C.2       4 UNK         0.5027 
     66 O         -48.0959  -23.6415    9.5900 O.2       4 UNK        -0.5211 
     67 CA        -48.5122  -25.4705    8.0745 C.3       4 UNK         0.0297 
     68 CB        -48.3614  -24.4706    6.9103 C.3       4 UNK        -0.1993 
     69 N         -47.8554  -26.7421    7.7334 N.am      4 UNK        -0.4486 
     70 C         -46.5365  -27.0005    7.6866 C.2       3 UNK         0.4961 
     71 O         -45.6589  -26.1812    7.9585 O.2       3 UNK        -0.5105 
     72 CA        -46.1176  -28.4241    7.2744 C.3       3 UNK         0.0299 
     73 CB        -46.0525  -29.3416    8.5064 C.3       3 UNK        -0.1972 
     74 N         -47.0061  -29.0145    6.2714 N.am      3 UNK        -0.4305 
     75 C         -47.0779  -28.6154    4.9941 C.2       2 UNK         0.5006 
     76 O         -46.3331  -27.7695    4.4963 O.2       2 UNK        -0.5106 
     77 CA        -48.1878  -29.2318    4.1215 C.3       2 UNK         0.0296 
     78 CB        -48.7530  -30.5686    4.6567 C.3       2 UNK        -0.2002 
     79 N         -49.2603  -28.2563    3.8982 N.am      2 UNK        -0.4032 
     80 C         -50.0075  -27.6500    4.8328 C.2       1 UNK         0.5000 
     81 O         -49.9279  -27.9259    6.0312 O.2       1 UNK        -0.5238 
     82 H82       -52.3719  -26.5757    0.0746 H         1 UNK         0.0889 
     83 H83       -53.3186  -27.5023    1.2405 H         1 UNK         0.0889 
     84 H84       -52.0207  -28.2864    0.3370 H         1 UNK         0.0889 
     85 H85       -52.7254  -27.0920    3.3575 H         1 UNK         0.3028 
     86 H86       -50.2999  -25.7244    4.0491 H         1 UNK         0.0864 
     87 H87       -52.1107  -24.9156    5.2110 H         1 UNK         0.0720 
     88 H88       -51.3309  -25.8546    6.4254 H         1 UNK         0.0720 
     89 H89       -52.4226  -28.8313    6.4256 H         1 UNK         0.0814 
     90 H90       -53.9935  -28.6509    7.1598 H         1 UNK         0.0814 
     91 H91       -53.6554  -25.8700    8.4297 H         1 UNK         0.1469 
     92 H92       -50.8322  -26.5422   11.5863 H         1 UNK         0.1381 
     93 H93       -51.1064  -29.3133    8.3292 H         1 UNK         0.1206 
     94 H94       -49.3154  -29.5386    9.8986 H         1 UNK         0.0813 
     95 H95       -48.9423  -28.2203   10.9791 H         1 UNK         0.0813 
     96 H96       -51.4419  -30.9381   10.2061 H         1 UNK         0.0638 
     97 H97       -51.0853  -32.0491   11.4879 H         1 UNK         0.0638 
     98 H98       -53.5064  -31.6814   11.2374 H         1 UNK         0.0568 
     99 H99       -53.5135  -29.4383   13.9373 H         1 UNK         0.3450 
    100 H100      -53.4875  -30.6907   15.1605 H         1 UNK         0.3450 
    101 H101      -52.8734  -28.8677   11.3318 H         1 UNK         0.2987 
    102 H102      -54.3674  -27.3197   11.0531 H         1 UNK         0.0766 
    103 H103      -55.8732  -28.0815    9.2118 H         1 UNK         0.0798 
    104 H104      -56.5032  -26.6510   10.0100 H         1 UNK         0.0798 
    105 H105      -57.2045  -28.2343   10.3509 H         1 UNK         0.0798 
    106 H106      -56.7804  -27.1625   12.5617 H         1 UNK         0.3198 
    107 H107      -56.5745  -26.0101   14.6210 H         1 UNK         0.0843 
    108 H108      -55.8915  -28.7398   15.8675 H         1 UNK         0.0831 
    109 H109      -57.3130  -28.3846   14.8961 H         1 UNK         0.0831 
    110 H110      -57.1205  -27.6278   16.4688 H         1 UNK         0.0831 
    111 H111      -54.2947  -26.8745   16.3572 H         1 UNK         0.3133 
    112 H112      -53.1825  -23.5223   16.7857 H         1 UNK         0.0566 
    113 H113      -53.0019  -24.4253   19.0891 H         1 UNK         0.0814 
    114 H114      -54.0913  -25.7493   18.6815 H         1 UNK         0.0814 
    115 H115      -54.6732  -24.0943   18.6617 H         1 UNK         0.0814 
    116 H116      -51.4663  -24.7130   16.1945 H         1 UNK         0.3091 
    117 H117      -50.2854  -27.9899   16.8052 H         1 UNK         0.0702 
    118 H118      -49.7325  -27.9215   14.3619 H         1 UNK         0.0785 
    119 H119      -51.0125  -26.7361   14.1064 H         1 UNK         0.0785 
    120 H120      -51.4097  -28.3584   14.6453 H         1 UNK         0.0785 
    121 H121      -49.0805  -25.8058   15.4463 H         1 UNK         0.2998 
    122 H122      -47.4330  -24.4759   18.3515 H         1 UNK         0.0697 
    123 H123      -46.5543  -26.1023   15.9034 H         1 UNK         0.0825 
    124 H124      -46.2041  -26.4948   17.5810 H         1 UNK         0.0825 
    125 H125      -45.5261  -25.0419   16.8648 H         1 UNK         0.0825 
    126 H126      -47.8438  -24.0101   15.4355 H         1 UNK         0.3029 
    127 H127      -49.4327  -20.9204   15.9858 H         1 UNK         0.0897 
    128 H128      -46.5578  -21.2669   14.9671 H         1 UNK         0.0792 
    129 H129      -47.0607  -20.1685   16.2441 H         1 UNK         0.0792 
    130 H130      -47.6307  -19.9134   14.6041 H         1 UNK         0.0792 
    131 H131      -48.4615  -22.1139   13.5917 H         1 UNK         0.3086 
    132 H132      -51.0000  -24.5147   13.1396 H         1 UNK         0.0583 
    133 H133      -52.3145  -22.5308   12.5153 H         1 UNK         0.1020 
    134 H134      -50.9005  -21.7279   11.8836 H         1 UNK         0.1020 
    135 H135      -52.8284  -24.9714   11.8393 H         1 UNK         0.0694 
    136 H136      -53.7824  -24.5513   10.4457 H         1 UNK         0.0694 
    137 H137      -49.1152  -23.7222   11.2641 H         1 UNK         0.2989 
    138 H138      -46.5307  -24.5114   11.6083 H         1 UNK         0.1055 
    139 H139      -47.0357  -27.4122   12.4633 H         1 UNK         0.0806 
    140 H140      -45.6118  -26.8391   11.5920 H         1 UNK         0.0806 
    141 H141      -45.9269  -26.2820   13.2250 H         1 UNK         0.0806 
    142 H142      -47.7535  -26.7012   10.1758 H         1 UNK         0.3061 
    143 H143      -49.5741  -25.7011    8.1761 H         1 UNK         0.0734 
    144 H144      -47.3258  -24.1514    6.7885 H         1 UNK         0.0832 
    145 H145      -48.6907  -24.9062    5.9677 H         1 UNK         0.0832 
    146 H146      -48.9626  -23.5766    7.0803 H         1 UNK         0.0832 
    147 H147      -48.4930  -27.4667    7.4146 H         1 UNK         0.3156 
    148 H148      -45.1149  -28.3634    6.8455 H         1 UNK         0.0589 
    149 H149      -45.3857  -28.9289    9.2650 H         1 UNK         0.0808 
    150 H150      -47.0308  -29.4719    8.9690 H         1 UNK         0.0808 
    151 H151      -45.6707  -30.3288    8.2454 H         1 UNK         0.0808 
    152 H152      -47.6770  -29.6973    6.5925 H         1 UNK         0.3098 
    153 H153      -47.7392  -29.4308    3.1470 H         1 UNK         0.0720 
    154 H154      -47.9569  -31.2994    4.8055 H         1 UNK         0.0791 
    155 H155      -49.4544  -31.0034    3.9446 H         1 UNK         0.0791 
    156 H156      -49.2817  -30.4560    5.6035 H         1 UNK         0.0791 
    157 H157      -49.3651  -27.9149    2.9460 H         1 UNK         0.3028 
@<TRIPOS>BOND
     1    1    2 1    
     2    1   82 1    
     3    1   83 1    
     4    1   84 1    
     5    2    3 2    
     6    2    4 am   BACKBONE|DICT|INTERRES
     7    4    5 1    
     8    4   85 1    
     9    5    6 1    
    10    5   80 1    
    11    5   86 1    
    12    6    7 1    
    13    6   87 1    
    14    6   88 1    
    15    7    8 1    
    16    8    9 1    
    17    8   89 1    
    18    8   90 1    
    19    9   10 ar   
    20    9   14 ar   
    21   10   11 ar   
    22   10   91 1    
    23   11   12 ar   
    24   11   58 1    
    25   12   13 ar   
    26   12   92 1    
    27   13   14 ar   
    28   13   15 1    
    29   14   93 1    
    30   15   16 1    
    31   15   94 1    
    32   15   95 1    
    33   16   17 1    
    34   17   18 1    
    35   17   96 1    
    36   17   97 1    
    37   18   19 1    
    38   18   22 1    
    39   18   98 1    
    40   19   20 am   BACKBONE|DICT|INTERRES
    41   19   21 2    
    42   20   99 1    
    43   20  100 1    
    44   22   23 am   BACKBONE|DICT|INTERRES
    45   22  101 1    
    46   23   24 2    
    47   23   25 1    
    48   25   26 1    
    49   25   27 1    
    50   25  102 1    
    51   26  103 1    
    52   26  104 1    
    53   26  105 1    
    54   27   28 am   BACKBONE|DICT|INTERRES
    55   27  106 1    
    56   28   29 2    
    57   28   30 1    
    58   30   31 1    
    59   30   32 1    
    60   30  107 1    
    61   31  108 1    
    62   31  109 1    
    63   31  110 1    
    64   32   33 am   BACKBONE|DICT|INTERRES
    65   32  111 1    
    66   33   34 2    
    67   33   35 1    
    68   35   36 1    
    69   35   37 1    
    70   35  112 1    
    71   36  113 1    
    72   36  114 1    
    73   36  115 1    
    74   37   38 am   BACKBONE|DICT|INTERRES
    75   37  116 1    
    76   38   39 2    
    77   38   40 1    
    78   40   41 1    
    79   40   42 1    
    80   40  117 1    
    81   41  118 1    
    82   41  119 1    
    83   41  120 1    
    84   42   43 am   BACKBONE|DICT|INTERRES
    85   42  121 1    
    86   43   44 2    
    87   43   45 1    
    88   45   46 1    
    89   45   47 1    
    90   45  122 1    
    91   46  123 1    
    92   46  124 1    
    93   46  125 1    
    94   47   48 am   BACKBONE|DICT|INTERRES
    95   47  126 1    
    96   48   49 2    
    97   48   50 1    
    98   50   51 1    
    99   50   52 1    
   100   50  127 1    
   101   51  128 1    
   102   51  129 1    
   103   51  130 1    
   104   52   53 am   BACKBONE|DICT|INTERRES
   105   52  131 1    
   106   53   54 2    
   107   53   55 1    
   108   55   56 1    
   109   55   59 1    
   110   55  132 1    
   111   56   57 1    
   112   56  133 1    
   113   56  134 1    
   114   57   58 1    
   115   58  135 1    
   116   58  136 1    
   117   59   60 am   BACKBONE|DICT|INTERRES
   118   59  137 1    
   119   60   61 2    
   120   60   62 1    
   121   62   63 1    
   122   62   64 1    
   123   62  138 1    
   124   63  139 1    
   125   63  140 1    
   126   63  141 1    
   127   64   65 am   BACKBONE|DICT|INTERRES
   128   64  142 1    
   129   65   66 2    
   130   65   67 1    
   131   67   68 1    
   132   67   69 1    
   133   67  143 1    
   134   68  144 1    
   135   68  145 1    
   136   68  146 1    
   137   69   70 am   BACKBONE|DICT|INTERRES
   138   69  147 1    
   139   70   71 2    
   140   70   72 1    
   141   72   73 1    
   142   72   74 1    
   143   72  148 1    
   144   73  149 1    
   145   73  150 1    
   146   73  151 1    
   147   74   75 am   BACKBONE|DICT|INTERRES
   148   74  152 1    
   149   75   76 2    
   150   75   77 1    
   151   77   78 1    
   152   77   79 1    
   153   77  153 1    
   154   78  154 1    
   155   78  155 1    
   156   78  156 1    
   157   79   80 am   BACKBONE|DICT|INTERRES
   158   79  157 1    
   159   80   81 2    
@<TRIPOS>SUBSTRUCTURE
     1 UNK         1 GROUP             0       ****    0 ROOT    
