@<TRIPOS>MOLECULE
3R207
157   159    1
SMALL
USER_CHARGES


@<TRIPOS>ATOM
      1 CA        -48.3050  -30.5755    1.4231 C.3       0 UNK        -0.1975 
      2 C         -48.9524  -30.1046    2.7171 C.2       0 UNK         0.4852 
      3 O         -48.8433  -30.7880    3.7360 O.2       0 UNK        -0.5216 
      4 N         -49.6261  -28.9459    2.6794 N.am      1 UNK        -0.4461 
      5 CA        -50.2864  -28.2865    3.8112 C.3       1 UNK         0.0864 
      6 C6        -51.4651  -29.1234    4.3951 C.3       14 UNK        -0.0898 
      7 S7        -52.7536  -28.0757    5.1472 S.3       14 UNK        -0.2598 
      8 C8        -52.6474  -28.5375    6.9044 C.3       14 UNK         0.0286 
      9 C9        -53.5810  -27.6849    7.7486 C.ar      14 UNK        -0.0844 
     10 C10       -53.2805  -26.3364    7.9633 C.ar      14 UNK        -0.0881 
     11 C11       -54.1285  -25.5342    8.7304 C.ar      14 UNK        -0.0643 
     12 C12       -55.2807  -26.0925    9.2900 C.ar      14 UNK        -0.0930 
     13 C13       -55.5884  -27.4420    9.0916 C.ar      14 UNK        -0.0827 
     14 C14       -54.7326  -28.2364    8.3215 C.ar      14 UNK        -0.1249 
     15 C15       -56.8721  -28.0150    9.6746 C.3       14 UNK         0.0141 
     16 S16       -56.7745  -28.2185   11.4815 S.3       14 UNK        -0.2313 
     17 C17       -56.3805  -29.9915   11.6548 C.3       14 UNK        -0.0915 
     18 CA        -55.3887  -30.2546   12.8254 C.3       13 UNK         0.0968 
     19 C         -55.3348  -31.7480   13.2772 C.2       13 UNK         0.5732 
     20 N         -54.2151  -32.2464   13.7926 N.am      13 UNK        -0.7310 
     21 O         -56.3312  -32.4631   13.1970 O.2       13 UNK        -0.5035 
     22 N         -54.0686  -29.6450   12.6053 N.am      13 UNK        -0.4233 
     23 C         -53.1729  -30.0200   11.6788 C.2       13 UNK         0.4989 
     24 O         -53.3890  -30.8649   10.8092 O.2       13 UNK        -0.4996 
     25 CA        -51.7765  -29.3726   11.7452 C.3       12 UNK         0.0216 
     26 CB        -51.6842  -28.2484   10.7058 C.3       12 UNK        -0.1964 
     27 N         -51.4153  -28.8504   13.0677 N.am      12 UNK        -0.4276 
     28 C         -51.3529  -29.5639   14.2025 C.2       12 UNK         0.5020 
     29 O         -51.4991  -30.7862   14.2522 O.2       12 UNK        -0.5489 
     30 CA        -51.1732  -28.7711   15.5107 C.3       11 UNK         0.0294 
     31 CB        -49.7088  -28.8107   15.9754 C.3       11 UNK        -0.2019 
     32 N         -51.6294  -27.3770   15.4194 N.am      11 UNK        -0.4493 
     33 C         -52.8955  -27.0000   15.1796 C.2       11 UNK         0.4932 
     34 O         -53.8147  -27.8047   15.0146 O.2       11 UNK        -0.5029 
     35 CA        -53.1767  -25.4905   15.0378 C.3       10 UNK         0.0280 
     36 CB        -54.6484  -25.1299   15.3330 C.3       10 UNK        -0.1976 
     37 N         -52.2612  -24.6262   15.7942 N.am      10 UNK        -0.4242 
     38 C         -52.1125  -24.5832   17.1272 C.2       10 UNK         0.5072 
     39 O         -52.7136  -25.3245   17.9077 O.2       10 UNK        -0.5224 
     40 CA        -51.1475  -23.5128   17.6793 C.3       9 UNK         0.0343 
     41 CB        -50.8691  -23.6799   19.1888 C.3       9 UNK        -0.2003 
     42 N         -49.8827  -23.4034   16.9430 N.am      9 UNK        -0.4272 
     43 C         -48.9718  -24.3626   16.7264 C.2       9 UNK         0.4988 
     44 O         -49.1225  -25.5374   17.0647 O.2       9 UNK        -0.5108 
     45 CA        -47.6652  -23.9181   16.0309 C.3       8 UNK         0.0248 
     46 CB        -46.6691  -25.0790   15.8574 C.3       8 UNK        -0.2001 
     47 N         -47.9046  -23.2930   14.7266 N.am      8 UNK        -0.4140 
     48 C         -48.4016  -22.0635   14.5293 C.2       8 UNK         0.5028 
     49 O         -48.6454  -21.2740   15.4436 O.2       8 UNK        -0.5428 
     50 CA        -48.7523  -21.6703   13.0833 C.3       7 UNK         0.0264 
     51 CB        -47.5252  -21.0976   12.3569 C.3       7 UNK        -0.1988 
     52 N         -49.3152  -22.7781   12.3055 N.am      7 UNK        -0.4454 
     53 C         -50.4416  -23.4395   12.6163 C.2       7 UNK         0.5027 
     54 O         -51.1581  -23.1570   13.5787 O.2       7 UNK        -0.5083 
     55 CA        -50.7851  -24.6671   11.7453 C.3       6 UNK         0.0844 
     56 C56       -51.4164  -24.2737   10.3901 C.3       14 UNK        -0.0967 
     57 S57       -53.1435  -23.7211   10.5826 S.3       14 UNK        -0.2604 
     58 C58       -53.8231  -24.0576    8.9303 C.3       14 UNK         0.0134 
     59 N         -49.6186  -25.5362   11.5849 N.am      6 UNK        -0.4116 
     60 C         -49.0294  -26.1997   12.5890 C.2       5 UNK         0.5034 
     61 O         -49.4844  -26.2435   13.7293 O.2       5 UNK        -0.5045 
     62 CA        -47.7039  -26.9133   12.2810 C.3       5 UNK         0.0224 
     63 CB        -47.9367  -28.3795   11.8868 C.3       5 UNK        -0.1978 
     64 N         -46.9392  -26.2240   11.2388 N.am      5 UNK        -0.4737 
     65 C         -46.3061  -25.0582   11.4326 C.2       4 UNK         0.5027 
     66 O         -46.2536  -24.4867   12.5208 O.2       4 UNK        -0.5211 
     67 CA        -45.6688  -24.3977   10.1981 C.3       4 UNK         0.0297 
     68 CB        -44.2800  -24.9944    9.9218 C.3       4 UNK        -0.1993 
     69 N         -46.5042  -24.5127    8.9988 N.am      4 UNK        -0.4486 
     70 C         -47.7058  -23.9352    8.8543 C.2       3 UNK         0.4961 
     71 O         -48.2173  -23.2042    9.7016 O.2       3 UNK        -0.5105 
     72 CA        -48.4964  -24.2702    7.5758 C.3       3 UNK         0.0299 
     73 CB        -48.1457  -23.2846    6.4511 C.3       3 UNK        -0.1972 
     74 N         -48.3056  -25.6455    7.1008 N.am      3 UNK        -0.4305 
     75 C         -48.5735  -26.7510    7.8073 C.2       2 UNK         0.5006 
     76 O         -49.0242  -26.7263    8.9536 O.2       2 UNK        -0.5106 
     77 CA        -48.2721  -28.0972    7.1213 C.3       2 UNK         0.0296 
     78 CB        -48.2842  -29.2747    8.1135 C.3       2 UNK        -0.2002 
     79 N         -49.2092  -28.3912    6.0368 N.am      2 UNK        -0.4032 
     80 C         -49.2307  -27.8044    4.8331 C.2       1 UNK         0.5000 
     81 O         -48.4415  -26.9156    4.5005 O.2       1 UNK        -0.5238 
     82 H82       -47.2275  -30.6699    1.5559 H         1 UNK         0.0889 
     83 H83       -48.4860  -29.8842    0.6002 H         1 UNK         0.0889 
     84 H84       -48.7003  -31.5506    1.1395 H         1 UNK         0.0889 
     85 H85       -49.6485  -28.4246    1.8136 H         1 UNK         0.3028 
     86 H86       -50.7120  -27.3763    3.3850 H         1 UNK         0.0864 
     87 H87       -51.1349  -29.9037    5.0822 H         1 UNK         0.0720 
     88 H88       -51.9596  -29.6593    3.5832 H         1 UNK         0.0720 
     89 H89       -51.6287  -28.4011    7.2656 H         1 UNK         0.0814 
     90 H90       -52.8818  -29.5974    7.0176 H         1 UNK         0.0814 
     91 H91       -52.3906  -25.9110    7.5196 H         1 UNK         0.1469 
     92 H92       -55.9427  -25.4730    9.8799 H         1 UNK         0.1381 
     93 H93       -54.9675  -29.2799    8.1616 H         1 UNK         0.1206 
     94 H94       -57.1321  -28.9621    9.1995 H         1 UNK         0.0813 
     95 H95       -57.6945  -27.3346    9.4491 H         1 UNK         0.0813 
     96 H96       -57.3282  -30.5054   11.8227 H         1 UNK         0.0638 
     97 H97       -55.9850  -30.3836   10.7172 H         1 UNK         0.0638 
     98 H98       -55.7892  -29.7416   13.7004 H         1 UNK         0.0568 
     99 H99       -54.2002  -33.2082   14.0915 H         1 UNK         0.3450 
    100 H100      -53.3798  -31.6794   13.8803 H         1 UNK         0.3450 
    101 H101      -53.8015  -28.9549   13.2979 H         1 UNK         0.2987 
    102 H102      -51.0462  -30.1424   11.4881 H         1 UNK         0.0766 
    103 H103      -52.3949  -27.4445   10.9037 H         1 UNK         0.0798 
    104 H104      -51.8983  -28.6366    9.7117 H         1 UNK         0.0798 
    105 H105      -50.6878  -27.8210   10.6610 H         1 UNK         0.0798 
    106 H106      -51.2622  -27.8548   13.1458 H         1 UNK         0.3198 
    107 H107      -51.7833  -29.2636   16.2707 H         1 UNK         0.0843 
    108 H108      -49.5860  -28.3163   16.9392 H         1 UNK         0.0831 
    109 H109      -49.0412  -28.3240   15.2645 H         1 UNK         0.0831 
    110 H110      -49.3648  -29.8391   16.0929 H         1 UNK         0.0831 
    111 H111      -50.9120  -26.6634   15.4903 H         1 UNK         0.3133 
    112 H112      -53.0045  -25.2567   13.9884 H         1 UNK         0.0566 
    113 H113      -54.8296  -24.0632   15.2009 H         1 UNK         0.0814 
    114 H114      -55.3239  -25.6559   14.6570 H         1 UNK         0.0814 
    115 H115      -54.9353  -25.3973   16.3503 H         1 UNK         0.0814 
    116 H116      -51.7144  -23.9860   15.2219 H         1 UNK         0.3091 
    117 H117      -51.6564  -22.5572   17.5455 H         1 UNK         0.0702 
    118 H118      -50.2220  -22.8869   19.5636 H         1 UNK         0.0785 
    119 H119      -50.3901  -24.6352   19.4066 H         1 UNK         0.0785 
    120 H120      -51.7940  -23.6401   19.7657 H         1 UNK         0.0785 
    121 H121      -49.6572  -22.4805   16.5794 H         1 UNK         0.2998 
    122 H122      -47.1940  -23.1778   16.6807 H         1 UNK         0.0697 
    123 H123      -45.7538  -24.7515   15.3641 H         1 UNK         0.0825 
    124 H124      -46.3861  -25.4973   16.8241 H         1 UNK         0.0825 
    125 H125      -47.0988  -25.8885   15.2686 H         1 UNK         0.0825 
    126 H126      -47.6846  -23.8550   13.9114 H         1 UNK         0.3029 
    127 H127      -49.5137  -20.8891   13.1335 H         1 UNK         0.0897 
    128 H128      -47.7827  -20.7528   11.3552 H         1 UNK         0.0792 
    129 H129      -47.1141  -20.2447   12.8986 H         1 UNK         0.0792 
    130 H130      -46.7300  -21.8370   12.2604 H         1 UNK         0.0792 
    131 H131      -48.8115  -23.0441   11.4612 H         1 UNK         0.3086 
    132 H132      -51.5221  -25.2600   12.2880 H         1 UNK         0.0583 
    133 H133      -50.8448  -23.4921    9.8876 H         1 UNK         0.1020 
    134 H134      -51.4028  -25.1354    9.7218 H         1 UNK         0.1020 
    135 H135      -54.7413  -23.4817    8.8062 H         1 UNK         0.0694 
    136 H136      -53.1315  -23.6940    8.1686 H         1 UNK         0.0694 
    137 H137      -49.2251  -25.6222   10.6541 H         1 UNK         0.2989 
    138 H138      -47.1104  -26.9093   13.1969 H         1 UNK         0.1055 
    139 H139      -48.5183  -28.4686   10.9714 H         1 UNK         0.0806 
    140 H140      -48.4777  -28.9126   12.6695 H         1 UNK         0.0806 
    141 H141      -46.9927  -28.9028   11.7349 H         1 UNK         0.0806 
    142 H142      -46.9887  -26.6055   10.3048 H         1 UNK         0.3061 
    143 H143      -45.5454  -23.3353   10.4195 H         1 UNK         0.0734 
    144 H144      -43.7818  -24.4777    9.1012 H         1 UNK         0.0832 
    145 H145      -43.6364  -24.9019   10.7979 H         1 UNK         0.0832 
    146 H146      -44.3348  -26.0540    9.6692 H         1 UNK         0.0832 
    147 H147      -46.1584  -25.0928    8.2484 H         1 UNK         0.3156 
    148 H148      -49.5567  -24.1543    7.8085 H         1 UNK         0.0589 
    149 H149      -47.1028  -23.3745    6.1445 H         1 UNK         0.0808 
    150 H150      -48.7693  -23.4479    5.5719 H         1 UNK         0.0808 
    151 H151      -48.3042  -22.2539    6.7720 H         1 UNK         0.0808 
    152 H152      -48.0113  -25.7694    6.1369 H         1 UNK         0.3098 
    153 H153      -47.2673  -28.0324    6.6986 H         1 UNK         0.0720 
    154 H154      -49.2542  -29.3890    8.5998 H         1 UNK         0.0791 
    155 H155      -47.5382  -29.1297    8.8952 H         1 UNK         0.0791 
    156 H156      -48.0454  -30.2152    7.6164 H         1 UNK         0.0791 
    157 H157      -49.8716  -29.1315    6.2098 H         1 UNK         0.3028 
@<TRIPOS>BOND
     1    1    2 1    
     2    1   82 1    
     3    1   83 1    
     4    1   84 1    
     5    2    3 2    
     6    2    4 am   BACKBONE|DICT|INTERRES
     7    4    5 1    
     8    4   85 1    
     9    5    6 1    
    10    5   80 1    
    11    5   86 1    
    12    6    7 1    
    13    6   87 1    
    14    6   88 1    
    15    7    8 1    
    16    8    9 1    
    17    8   89 1    
    18    8   90 1    
    19    9   10 ar   
    20    9   14 ar   
    21   10   11 ar   
    22   10   91 1    
    23   11   12 ar   
    24   11   58 1    
    25   12   13 ar   
    26   12   92 1    
    27   13   14 ar   
    28   13   15 1    
    29   14   93 1    
    30   15   16 1    
    31   15   94 1    
    32   15   95 1    
    33   16   17 1    
    34   17   18 1    
    35   17   96 1    
    36   17   97 1    
    37   18   19 1    
    38   18   22 1    
    39   18   98 1    
    40   19   20 am   BACKBONE|DICT|INTERRES
    41   19   21 2    
    42   20   99 1    
    43   20  100 1    
    44   22   23 am   BACKBONE|DICT|INTERRES
    45   22  101 1    
    46   23   24 2    
    47   23   25 1    
    48   25   26 1    
    49   25   27 1    
    50   25  102 1    
    51   26  103 1    
    52   26  104 1    
    53   26  105 1    
    54   27   28 am   BACKBONE|DICT|INTERRES
    55   27  106 1    
    56   28   29 2    
    57   28   30 1    
    58   30   31 1    
    59   30   32 1    
    60   30  107 1    
    61   31  108 1    
    62   31  109 1    
    63   31  110 1    
    64   32   33 am   BACKBONE|DICT|INTERRES
    65   32  111 1    
    66   33   34 2    
    67   33   35 1    
    68   35   36 1    
    69   35   37 1    
    70   35  112 1    
    71   36  113 1    
    72   36  114 1    
    73   36  115 1    
    74   37   38 am   BACKBONE|DICT|INTERRES
    75   37  116 1    
    76   38   39 2    
    77   38   40 1    
    78   40   41 1    
    79   40   42 1    
    80   40  117 1    
    81   41  118 1    
    82   41  119 1    
    83   41  120 1    
    84   42   43 am   BACKBONE|DICT|INTERRES
    85   42  121 1    
    86   43   44 2    
    87   43   45 1    
    88   45   46 1    
    89   45   47 1    
    90   45  122 1    
    91   46  123 1    
    92   46  124 1    
    93   46  125 1    
    94   47   48 am   BACKBONE|DICT|INTERRES
    95   47  126 1    
    96   48   49 2    
    97   48   50 1    
    98   50   51 1    
    99   50   52 1    
   100   50  127 1    
   101   51  128 1    
   102   51  129 1    
   103   51  130 1    
   104   52   53 am   BACKBONE|DICT|INTERRES
   105   52  131 1    
   106   53   54 2    
   107   53   55 1    
   108   55   56 1    
   109   55   59 1    
   110   55  132 1    
   111   56   57 1    
   112   56  133 1    
   113   56  134 1    
   114   57   58 1    
   115   58  135 1    
   116   58  136 1    
   117   59   60 am   BACKBONE|DICT|INTERRES
   118   59  137 1    
   119   60   61 2    
   120   60   62 1    
   121   62   63 1    
   122   62   64 1    
   123   62  138 1    
   124   63  139 1    
   125   63  140 1    
   126   63  141 1    
   127   64   65 am   BACKBONE|DICT|INTERRES
   128   64  142 1    
   129   65   66 2    
   130   65   67 1    
   131   67   68 1    
   132   67   69 1    
   133   67  143 1    
   134   68  144 1    
   135   68  145 1    
   136   68  146 1    
   137   69   70 am   BACKBONE|DICT|INTERRES
   138   69  147 1    
   139   70   71 2    
   140   70   72 1    
   141   72   73 1    
   142   72   74 1    
   143   72  148 1    
   144   73  149 1    
   145   73  150 1    
   146   73  151 1    
   147   74   75 am   BACKBONE|DICT|INTERRES
   148   74  152 1    
   149   75   76 2    
   150   75   77 1    
   151   77   78 1    
   152   77   79 1    
   153   77  153 1    
   154   78  154 1    
   155   78  155 1    
   156   78  156 1    
   157   79   80 am   BACKBONE|DICT|INTERRES
   158   79  157 1    
   159   80   81 2    
@<TRIPOS>SUBSTRUCTURE
     1 UNK         1 GROUP             0       ****    0 ROOT    
