@<TRIPOS>MOLECULE
3R207
157   159    1
SMALL
USER_CHARGES


@<TRIPOS>ATOM
      1 CA        -46.5259  -30.8222    2.6521 C.3       0 UNK        -0.1975 
      2 C         -47.2476  -29.9316    3.6526 C.2       0 UNK         0.4852 
      3 O         -46.7589  -29.7654    4.7703 O.2       0 UNK        -0.5216 
      4 N         -48.3895  -29.3582    3.2404 N.am      1 UNK        -0.4461 
      5 CA        -49.3432  -28.4777    3.9454 C.3       1 UNK         0.0864 
      6 C6        -50.3564  -29.2079    4.8753 C.3       14 UNK        -0.0898 
      7 S7        -49.6774  -30.3378    6.1396 S.3       14 UNK        -0.2598 
      8 C8        -49.3919  -29.2408    7.5612 C.3       14 UNK         0.0286 
      9 C9        -50.6812  -28.8245    8.2494 C.ar      14 UNK        -0.0844 
     10 C10       -51.2977  -27.6162    7.9197 C.ar      14 UNK        -0.0881 
     11 C11       -52.4706  -27.2204    8.5668 C.ar      14 UNK        -0.0643 
     12 C12       -53.0225  -28.0392    9.5559 C.ar      14 UNK        -0.0930 
     13 C13       -52.4073  -29.2492    9.9096 C.ar      14 UNK        -0.0827 
     14 C14       -51.2386  -29.6316    9.2439 C.ar      14 UNK        -0.1249 
     15 C15       -52.9335  -30.1699   11.0121 C.3       14 UNK         0.0141 
     16 S16       -54.5298  -29.6929   11.7539 S.3       14 UNK        -0.2313 
     17 C17       -54.6410  -30.9337   13.0835 C.3       14 UNK        -0.0915 
     18 CA        -55.8924  -30.7433   13.9783 C.3       13 UNK         0.0968 
     19 C         -55.9840  -31.8733   15.0453 C.2       13 UNK         0.5732 
     20 N         -55.8654  -31.5845   16.3360 N.am      13 UNK        -0.7310 
     21 O         -56.1724  -33.0353   14.6927 O.2       13 UNK        -0.5035 
     22 N         -55.9721  -29.3748   14.5145 N.am      13 UNK        -0.4233 
     23 C         -57.0800  -28.8084   15.0071 C.2       13 UNK         0.4989 
     24 O         -58.1683  -29.3793   15.0881 O.2       13 UNK        -0.4996 
     25 CA        -56.9589  -27.3562   15.4884 C.3       12 UNK         0.0216 
     26 CB        -56.6296  -27.3123   16.9896 C.3       12 UNK        -0.1964 
     27 N         -55.9435  -26.6010   14.7501 N.am      12 UNK        -0.4276 
     28 C         -56.1631  -25.9633   13.5893 C.2       12 UNK         0.5020 
     29 O         -57.2344  -26.0260   12.9829 O.2       12 UNK        -0.5489 
     30 CA        -55.0161  -25.1017   13.0052 C.3       11 UNK         0.0294 
     31 CB        -55.5367  -23.8295   12.3059 C.3       11 UNK        -0.2019 
     32 N         -53.9629  -24.7571   13.9689 N.am      11 UNK        -0.4493 
     33 C         -54.0908  -24.1431   15.1563 C.2       11 UNK         0.4932 
     34 O         -55.1319  -23.6113   15.5444 O.2       11 UNK        -0.5029 
     35 CA        -52.8637  -24.1883   16.0932 C.3       10 UNK         0.0280 
     36 CB        -53.2670  -24.2004   17.5824 C.3       10 UNK        -0.1976 
     37 N         -51.9395  -25.2978   15.8119 N.am      10 UNK        -0.4242 
     38 C         -52.2125  -26.6137   15.7709 C.2       10 UNK         0.5072 
     39 O         -53.3270  -27.0823   16.0129 O.2       10 UNK        -0.5224 
     40 CA        -51.0926  -27.5728   15.3169 C.3       9 UNK         0.0343 
     41 CB        -51.5180  -28.3213   14.0415 C.3       9 UNK        -0.2003 
     42 N         -49.8133  -26.9064   15.0598 N.am      9 UNK        -0.4272 
     43 C         -48.9345  -26.5335   15.9999 C.2       9 UNK         0.4988 
     44 O         -49.0638  -26.7866   17.1979 O.2       9 UNK        -0.5108 
     45 CA        -47.7312  -25.6944   15.5299 C.3       8 UNK         0.0248 
     46 CB        -46.5908  -26.6032   15.0455 C.3       8 UNK        -0.2001 
     47 N         -48.0770  -24.7234   14.4836 N.am      8 UNK        -0.4140 
     48 C         -48.9525  -23.7189   14.6434 C.2       8 UNK         0.5028 
     49 O         -49.5258  -23.4777   15.7054 O.2       8 UNK        -0.5428 
     50 CA        -49.2963  -22.8719   13.4082 C.3       7 UNK         0.0264 
     51 CB        -48.2164  -21.8092   13.1516 C.3       7 UNK        -0.1988 
     52 N         -49.4992  -23.6752   12.2020 N.am      7 UNK        -0.4454 
     53 C         -50.4621  -24.5956   12.0401 C.2       7 UNK         0.5027 
     54 O         -51.3154  -24.8544   12.8888 O.2       7 UNK        -0.5083 
     55 CA        -50.4331  -25.3989   10.7247 C.3       6 UNK         0.0844 
     56 C56       -51.0074  -24.5747    9.5429 C.3       14 UNK        -0.0967 
     57 S57       -52.8307  -24.6324    9.4994 S.3       14 UNK        -0.2604 
     58 C58       -53.1259  -25.8922    8.2174 C.3       14 UNK         0.0134 
     59 N         -49.0968  -25.9308   10.4402 N.am      6 UNK        -0.4116 
     60 C         -48.4111  -26.7519   11.2506 C.2       5 UNK         0.5034 
     61 O         -48.8619  -27.2290   12.2915 O.2       5 UNK        -0.5045 
     62 CA        -46.9449  -27.0277   10.8805 C.3       5 UNK         0.0224 
     63 CB        -46.8200  -28.1928    9.8899 C.3       5 UNK        -0.1978 
     64 N         -46.2853  -25.8396   10.3367 N.am      5 UNK        -0.4737 
     65 C         -45.9773  -24.7567   11.0636 C.2       4 UNK         0.5027 
     66 O         -46.1561  -24.6757   12.2783 O.2       4 UNK        -0.5211 
     67 CA        -45.4272  -23.5454   10.2931 C.3       4 UNK         0.0297 
     68 CB        -43.9207  -23.7048   10.0353 C.3       4 UNK        -0.1993 
     69 N         -46.1268  -23.3259    9.0235 N.am      4 UNK        -0.4486 
     70 C         -47.4204  -22.9866    8.9229 C.2       3 UNK         0.4961 
     71 O         -48.1460  -22.7705    9.8917 O.2       3 UNK        -0.5105 
     72 CA        -48.0212  -22.9155    7.5094 C.3       3 UNK         0.0299 
     73 CB        -47.8700  -21.4995    6.9325 C.3       3 UNK        -0.1972 
     74 N         -47.4440  -23.8910    6.5798 N.am      3 UNK        -0.4305 
     75 C         -47.5527  -25.2215    6.6993 C.2       2 UNK         0.5006 
     76 O         -48.1348  -25.7841    7.6299 O.2       2 UNK        -0.5106 
     77 CA        -46.8143  -26.0528    5.6363 C.3       2 UNK         0.0296 
     78 CB        -45.4787  -26.5611    6.2035 C.3       2 UNK        -0.2002 
     79 N         -47.5773  -27.1953    5.1277 N.am      2 UNK        -0.4032 
     80 C         -48.7838  -27.1645    4.5494 C.2       1 UNK         0.5000 
     81 O         -49.4490  -26.1336    4.4287 O.2       1 UNK        -0.5238 
     82 H82       -47.0566  -30.8868    1.7024 H         1 UNK         0.0889 
     83 H83       -46.4267  -31.8303    3.0536 H         1 UNK         0.0889 
     84 H84       -45.5268  -30.4334    2.4568 H         1 UNK         0.0889 
     85 H85       -48.6679  -29.5503    2.2879 H         1 UNK         0.3028 
     86 H86       -49.9549  -28.1109    3.1190 H         1 UNK         0.0864 
     87 H87       -51.0373  -28.4965    5.3420 H         1 UNK         0.0720 
     88 H88       -51.0014  -29.8257    4.2489 H         1 UNK         0.0720 
     89 H89       -48.7558  -29.7683    8.2724 H         1 UNK         0.0814 
     90 H90       -48.8289  -28.3643    7.2462 H         1 UNK         0.0814 
     91 H91       -50.8542  -26.9767    7.1683 H         1 UNK         0.1469 
     92 H92       -53.9198  -27.7053   10.0558 H         1 UNK         0.1381 
     93 H93       -50.7520  -30.5610    9.5077 H         1 UNK         0.1206 
     94 H94       -52.1831  -30.2186   11.8020 H         1 UNK         0.0813 
     95 H95       -53.0312  -31.1803   10.6121 H         1 UNK         0.0813 
     96 H96       -53.7325  -30.8844   13.6862 H         1 UNK         0.0638 
     97 H97       -54.6505  -31.9216   12.6189 H         1 UNK         0.0638 
     98 H98       -56.7657  -30.8792   13.3374 H         1 UNK         0.0568 
     99 H99       -55.9312  -32.3258   17.0153 H         1 UNK         0.3450 
    100 H100      -55.7111  -30.6358   16.6354 H         1 UNK         0.3450 
    101 H101      -55.1217  -28.8332   14.4860 H         1 UNK         0.2987 
    102 H102      -57.9301  -26.8775   15.3447 H         1 UNK         0.0766 
    103 H103      -56.5822  -26.2856   17.3536 H         1 UNK         0.0798 
    104 H104      -55.6736  -27.7885   17.2108 H         1 UNK         0.0798 
    105 H105      -57.3941  -27.8281   17.5724 H         1 UNK         0.0798 
    106 H106      -55.0233  -26.5390   15.1791 H         1 UNK         0.3198 
    107 H107      -54.5342  -25.7212   12.2469 H         1 UNK         0.0843 
    108 H108      -54.7179  -23.2521   11.8765 H         1 UNK         0.0831 
    109 H109      -56.0802  -23.1834   12.9957 H         1 UNK         0.0831 
    110 H110      -56.2148  -24.0796   11.4891 H         1 UNK         0.0831 
    111 H111      -53.0250  -25.0589   13.7106 H         1 UNK         0.3133 
    112 H112      -52.3046  -23.2712   15.9043 H         1 UNK         0.0566 
    113 H113      -52.3901  -24.2197   18.2295 H         1 UNK         0.0814 
    114 H114      -53.8394  -23.3093   17.8429 H         1 UNK         0.0814 
    115 H115      -53.8835  -25.0665   17.8259 H         1 UNK         0.0814 
    116 H116      -50.9990  -25.0059   15.5714 H         1 UNK         0.3091 
    117 H117      -50.9532  -28.3068   16.1130 H         1 UNK         0.0702 
    118 H118      -52.4417  -28.8774   14.2012 H         1 UNK         0.0785 
    119 H119      -50.7581  -29.0385   13.7307 H         1 UNK         0.0785 
    120 H120      -51.6889  -27.6374   13.2087 H         1 UNK         0.0785 
    121 H121      -49.5936  -26.7159   14.0860 H         1 UNK         0.2998 
    122 H122      -47.3692  -25.1282   16.3906 H         1 UNK         0.0697 
    123 H123      -46.8920  -27.2074   14.1901 H         1 UNK         0.0825 
    124 H124      -46.2783  -27.2891   15.8339 H         1 UNK         0.0825 
    125 H125      -45.7152  -26.0225   14.7547 H         1 UNK         0.0825 
    126 H126      -47.5943  -24.8147   13.5932 H         1 UNK         0.3029 
    127 H127      -50.2363  -22.3563   13.6165 H         1 UNK         0.0897 
    128 H128      -48.4935  -21.1552   12.3246 H         1 UNK         0.0792 
    129 H129      -48.0723  -21.1789   14.0301 H         1 UNK         0.0792 
    130 H130      -47.2532  -22.2597   12.9110 H         1 UNK         0.0792 
    131 H131      -48.8745  -23.4847   11.4200 H         1 UNK         0.3086 
    132 H132      -51.0645  -26.2768   10.8758 H         1 UNK         0.0583 
    133 H133      -50.6920  -23.5307    9.5849 H         1 UNK         0.1020 
    134 H134      -50.6249  -24.9476    8.5924 H         1 UNK         0.1020 
    135 H135      -54.2012  -26.0360    8.1027 H         1 UNK         0.0694 
    136 H136      -52.7622  -25.5207    7.2579 H         1 UNK         0.0694 
    137 H137      -48.6638  -25.6441    9.5688 H         1 UNK         0.2989 
    138 H138      -46.4271  -27.3134   11.7986 H         1 UNK         0.1055 
    139 H139      -47.3521  -29.0733   10.2527 H         1 UNK         0.0806 
    140 H140      -45.7781  -28.4797    9.7474 H         1 UNK         0.0806 
    141 H141      -47.2294  -27.9352    8.9151 H         1 UNK         0.0806 
    142 H142      -46.1483  -25.8081    9.3372 H         1 UNK         0.3061 
    143 H143      -45.5759  -22.6609   10.9164 H         1 UNK         0.0734 
    144 H144      -43.5027  -22.8164    9.5614 H         1 UNK         0.0832 
    145 H145      -43.3805  -23.8542   10.9714 H         1 UNK         0.0832 
    146 H146      -43.7049  -24.5612    9.3953 H         1 UNK         0.0832 
    147 H147      -45.6001  -23.4694    8.1745 H         1 UNK         0.3156 
    148 H148      -49.0876  -23.1332    7.5942 H         1 UNK         0.0589 
    149 H149      -46.8230  -21.2263    6.7946 H         1 UNK         0.0808 
    150 H150      -48.3720  -21.4072    5.9692 H         1 UNK         0.0808 
    151 H151      -48.3147  -20.7584    7.5986 H         1 UNK         0.0808 
    152 H152      -46.9403  -23.5153    5.7887 H         1 UNK         0.3098 
    153 H153      -46.6016  -25.4107    4.7794 H         1 UNK         0.0720 
    154 H154      -44.8977  -27.0811    5.4414 H         1 UNK         0.0791 
    155 H155      -45.6317  -27.2527    7.0330 H         1 UNK         0.0791 
    156 H156      -44.8645  -25.7379    6.5708 H         1 UNK         0.0791 
    157 H157      -47.1249  -28.1088    5.1686 H         1 UNK         0.3028 
@<TRIPOS>BOND
     1    1    2 1    
     2    1   82 1    
     3    1   83 1    
     4    1   84 1    
     5    2    3 2    
     6    2    4 am   BACKBONE|DICT|INTERRES
     7    4    5 1    
     8    4   85 1    
     9    5    6 1    
    10    5   80 1    
    11    5   86 1    
    12    6    7 1    
    13    6   87 1    
    14    6   88 1    
    15    7    8 1    
    16    8    9 1    
    17    8   89 1    
    18    8   90 1    
    19    9   10 ar   
    20    9   14 ar   
    21   10   11 ar   
    22   10   91 1    
    23   11   12 ar   
    24   11   58 1    
    25   12   13 ar   
    26   12   92 1    
    27   13   14 ar   
    28   13   15 1    
    29   14   93 1    
    30   15   16 1    
    31   15   94 1    
    32   15   95 1    
    33   16   17 1    
    34   17   18 1    
    35   17   96 1    
    36   17   97 1    
    37   18   19 1    
    38   18   22 1    
    39   18   98 1    
    40   19   20 am   BACKBONE|DICT|INTERRES
    41   19   21 2    
    42   20   99 1    
    43   20  100 1    
    44   22   23 am   BACKBONE|DICT|INTERRES
    45   22  101 1    
    46   23   24 2    
    47   23   25 1    
    48   25   26 1    
    49   25   27 1    
    50   25  102 1    
    51   26  103 1    
    52   26  104 1    
    53   26  105 1    
    54   27   28 am   BACKBONE|DICT|INTERRES
    55   27  106 1    
    56   28   29 2    
    57   28   30 1    
    58   30   31 1    
    59   30   32 1    
    60   30  107 1    
    61   31  108 1    
    62   31  109 1    
    63   31  110 1    
    64   32   33 am   BACKBONE|DICT|INTERRES
    65   32  111 1    
    66   33   34 2    
    67   33   35 1    
    68   35   36 1    
    69   35   37 1    
    70   35  112 1    
    71   36  113 1    
    72   36  114 1    
    73   36  115 1    
    74   37   38 am   BACKBONE|DICT|INTERRES
    75   37  116 1    
    76   38   39 2    
    77   38   40 1    
    78   40   41 1    
    79   40   42 1    
    80   40  117 1    
    81   41  118 1    
    82   41  119 1    
    83   41  120 1    
    84   42   43 am   BACKBONE|DICT|INTERRES
    85   42  121 1    
    86   43   44 2    
    87   43   45 1    
    88   45   46 1    
    89   45   47 1    
    90   45  122 1    
    91   46  123 1    
    92   46  124 1    
    93   46  125 1    
    94   47   48 am   BACKBONE|DICT|INTERRES
    95   47  126 1    
    96   48   49 2    
    97   48   50 1    
    98   50   51 1    
    99   50   52 1    
   100   50  127 1    
   101   51  128 1    
   102   51  129 1    
   103   51  130 1    
   104   52   53 am   BACKBONE|DICT|INTERRES
   105   52  131 1    
   106   53   54 2    
   107   53   55 1    
   108   55   56 1    
   109   55   59 1    
   110   55  132 1    
   111   56   57 1    
   112   56  133 1    
   113   56  134 1    
   114   57   58 1    
   115   58  135 1    
   116   58  136 1    
   117   59   60 am   BACKBONE|DICT|INTERRES
   118   59  137 1    
   119   60   61 2    
   120   60   62 1    
   121   62   63 1    
   122   62   64 1    
   123   62  138 1    
   124   63  139 1    
   125   63  140 1    
   126   63  141 1    
   127   64   65 am   BACKBONE|DICT|INTERRES
   128   64  142 1    
   129   65   66 2    
   130   65   67 1    
   131   67   68 1    
   132   67   69 1    
   133   67  143 1    
   134   68  144 1    
   135   68  145 1    
   136   68  146 1    
   137   69   70 am   BACKBONE|DICT|INTERRES
   138   69  147 1    
   139   70   71 2    
   140   70   72 1    
   141   72   73 1    
   142   72   74 1    
   143   72  148 1    
   144   73  149 1    
   145   73  150 1    
   146   73  151 1    
   147   74   75 am   BACKBONE|DICT|INTERRES
   148   74  152 1    
   149   75   76 2    
   150   75   77 1    
   151   77   78 1    
   152   77   79 1    
   153   77  153 1    
   154   78  154 1    
   155   78  155 1    
   156   78  156 1    
   157   79   80 am   BACKBONE|DICT|INTERRES
   158   79  157 1    
   159   80   81 2    
@<TRIPOS>SUBSTRUCTURE
     1 UNK         1 GROUP             0       ****    0 ROOT    
