@<TRIPOS>MOLECULE
3R207
157   159    1
SMALL
USER_CHARGES


@<TRIPOS>ATOM
      1 CA        -49.8320  -30.0177    0.7456 C.3       0 UNK        -0.1975 
      2 C         -50.0635  -29.2622    2.0461 C.2       0 UNK         0.4852 
      3 O         -50.2048  -28.0384    2.0257 O.2       0 UNK        -0.5216 
      4 N         -50.1129  -29.9825    3.1737 N.am      1 UNK        -0.4461 
      5 CA        -50.2796  -29.4223    4.5192 C.3       1 UNK         0.0864 
      6 C6        -50.6791  -30.5050    5.5505 C.3       14 UNK        -0.0898 
      7 S7        -52.2727  -31.2976    5.1515 S.3       14 UNK        -0.2598 
      8 C8        -53.4609  -30.2081    6.0055 C.3       14 UNK         0.0286 
      9 C9        -53.2770  -30.2059    7.5177 C.ar      14 UNK        -0.0844 
     10 C10       -52.9369  -29.0264    8.1886 C.ar      14 UNK        -0.0881 
     11 C11       -52.7741  -29.0204    9.5776 C.ar      14 UNK        -0.0643 
     12 C12       -52.9515  -30.2066   10.2962 C.ar      14 UNK        -0.0930 
     13 C13       -53.3061  -31.3887    9.6375 C.ar      14 UNK        -0.0827 
     14 C14       -53.4646  -31.3818    8.2494 C.ar      14 UNK        -0.1249 
     15 C15       -53.5333  -32.6734   10.4223 C.3       14 UNK         0.0141 
     16 S16       -55.3016  -33.1076   10.5201 S.3       14 UNK        -0.2313 
     17 C17       -55.9774  -31.6744   11.4232 C.3       14 UNK        -0.0915 
     18 CA        -56.6500  -30.6280   10.4769 C.3       13 UNK         0.0968 
     19 C         -58.1818  -30.8541   10.2899 C.2       13 UNK         0.5732 
     20 N         -58.9926  -29.8098   10.1657 N.am      13 UNK        -0.7310 
     21 O         -58.6454  -31.9902   10.2244 O.2       13 UNK        -0.5035 
     22 N         -56.2603  -29.2432   10.7982 N.am      13 UNK        -0.4233 
     23 C         -56.4463  -28.6375   11.9760 C.2       13 UNK         0.4989 
     24 O         -57.0114  -29.1539   12.9438 O.2       13 UNK        -0.4996 
     25 CA        -55.8984  -27.2139   12.1092 C.3       12 UNK         0.0216 
     26 CB        -56.9972  -26.1630   11.8770 C.3       12 UNK        -0.1964 
     27 N         -55.3621  -27.0924   13.4590 N.am      12 UNK        -0.4276 
     28 C         -54.2916  -26.3804   13.8184 C.2       12 UNK         0.5020 
     29 O         -53.6712  -25.6311   13.0613 O.2       12 UNK        -0.5489 
     30 CA        -53.8138  -26.5958   15.2583 C.3       11 UNK         0.0294 
     31 CB        -52.9965  -27.8965   15.3576 C.3       11 UNK        -0.2019 
     32 N         -52.9662  -25.4891   15.6934 N.am      11 UNK        -0.4493 
     33 C         -53.1316  -24.7857   16.8199 C.2       11 UNK         0.4932 
     34 O         -54.0894  -24.9210   17.5841 O.2       11 UNK        -0.5029 
     35 CA        -51.9969  -23.8021   17.1634 C.3       10 UNK         0.0280 
     36 CB        -52.1634  -23.1224   18.5388 C.3       10 UNK        -0.1976 
     37 N         -50.6862  -24.4505   17.0468 N.am      10 UNK        -0.4242 
     38 C         -50.2324  -25.5217   17.7173 C.2       10 UNK         0.5072 
     39 O         -50.8198  -26.0514   18.6616 O.2       10 UNK        -0.5224 
     40 CA        -48.9053  -26.1355   17.2328 C.3       9 UNK         0.0343 
     41 CB        -49.1862  -27.3582   16.3436 C.3       9 UNK        -0.2003 
     42 N         -48.0603  -25.1928   16.4952 N.am      9 UNK        -0.4272 
     43 C         -47.4079  -24.1638   17.0547 C.2       9 UNK         0.4988 
     44 O         -47.3821  -23.9448   18.2664 O.2       9 UNK        -0.5108 
     45 CA        -46.6822  -23.2011   16.1007 C.3       8 UNK         0.0248 
     46 CB        -45.3069  -23.7641   15.7078 C.3       8 UNK        -0.2001 
     47 N         -47.4599  -22.8935   14.8958 N.am      8 UNK        -0.4140 
     48 C         -48.6317  -22.2395   14.8900 C.2       8 UNK         0.5028 
     49 O         -49.1708  -21.7904   15.9013 O.2       8 UNK        -0.5428 
     50 CA        -49.3463  -22.0869   13.5370 C.3       7 UNK         0.0264 
     51 CB        -48.7296  -20.9430   12.7166 C.3       7 UNK        -0.1988 
     52 N         -49.3437  -23.3199   12.7476 N.am      7 UNK        -0.4454 
     53 C         -49.9538  -24.4597   13.1066 C.2       7 UNK         0.5027 
     54 O         -50.6244  -24.5840   14.1319 O.2       7 UNK        -0.5083 
     55 CA        -49.7407  -25.6833   12.1948 C.3       6 UNK         0.0844 
     56 C56       -50.6971  -25.6511   10.9802 C.3       14 UNK        -0.0967 
     57 S57       -50.7065  -27.2394   10.0805 S.3       14 UNK        -0.2604 
     58 C58       -52.4445  -27.7239   10.3017 C.3       14 UNK         0.0134 
     59 N         -48.3402  -25.8049   11.7848 N.am      6 UNK        -0.4116 
     60 C         -47.3125  -26.0458   12.6091 C.2       5 UNK         0.5034 
     61 O         -47.4247  -26.2243   13.8216 O.2       5 UNK        -0.5045 
     62 CA        -45.9145  -26.0346   11.9709 C.3       5 UNK         0.0224 
     63 CB        -45.6281  -27.3675   11.2610 C.3       5 UNK        -0.1978 
     64 N         -45.7340  -24.9203   11.0336 N.am      5 UNK        -0.4737 
     65 C         -45.7331  -23.6302   11.3985 C.2       4 UNK         0.5027 
     66 O         -45.8715  -23.2487   12.5588 O.2       4 UNK        -0.5211 
     67 CA        -45.5941  -22.5865   10.2799 C.3       4 UNK         0.0297 
     68 CB        -44.1178  -22.4022    9.8947 C.3       4 UNK        -0.1993 
     69 N         -46.3853  -22.8834    9.0809 N.am      4 UNK        -0.4486 
     70 C         -47.7194  -23.0251    9.0551 C.2       3 UNK         0.4961 
     71 O         -48.4317  -23.0255   10.0585 O.2       3 UNK        -0.5105 
     72 CA        -48.3621  -23.2333    7.6806 C.3       3 UNK         0.0299 
     73 CB        -47.9897  -22.1151    6.6891 C.3       3 UNK        -0.1972 
     74 N         -47.9569  -24.5335    7.1483 N.am      3 UNK        -0.4305 
     75 C         -48.7947  -25.5420    6.8874 C.2       2 UNK         0.5006 
     76 O         -50.0222  -25.4776    7.0025 O.2       2 UNK        -0.5106 
     77 CA        -48.1451  -26.8519    6.4272 C.3       2 UNK         0.0296 
     78 CB        -47.4558  -27.5757    7.6005 C.3       2 UNK        -0.2002 
     79 N         -49.1870  -27.6981    5.8581 N.am      2 UNK        -0.4032 
     80 C         -49.0035  -28.6920    4.9844 C.2       1 UNK         0.5000 
     81 O         -47.8954  -29.0555    4.5777 O.2       1 UNK        -0.5238 
     82 H82       -50.6622  -29.8484    0.0604 H         1 UNK         0.0889 
     83 H83       -49.7407  -31.0915    0.9085 H         1 UNK         0.0889 
     84 H84       -48.9175  -29.6683    0.2669 H         1 UNK         0.0889 
     85 H85       -49.9798  -30.9826    3.1333 H         1 UNK         0.3028 
     86 H86       -51.0830  -28.6836    4.4713 H         1 UNK         0.0864 
     87 H87       -50.7310  -30.0877    6.5575 H         1 UNK         0.0720 
     88 H88       -49.9177  -31.2862    5.5949 H         1 UNK         0.0720 
     89 H89       -54.4727  -30.5439    5.7745 H         1 UNK         0.0814 
     90 H90       -53.3752  -29.1992    5.5991 H         1 UNK         0.0814 
     91 H91       -52.7984  -28.1078    7.6346 H         1 UNK         0.1469 
     92 H92       -52.8324  -30.2051   11.3710 H         1 UNK         0.1381 
     93 H93       -53.7393  -32.2938    7.7368 H         1 UNK         0.1206 
     94 H94       -53.1242  -32.5923   11.4306 H         1 UNK         0.0813 
     95 H95       -52.9948  -33.4904    9.9400 H         1 UNK         0.0813 
     96 H96       -56.6766  -32.0325   12.1809 H         1 UNK         0.0638 
     97 H97       -55.1603  -31.2244   11.9883 H         1 UNK         0.0638 
     98 H98       -56.2435  -30.7729    9.4755 H         1 UNK         0.0568 
     99 H99       -58.6303  -28.8715   10.2066 H         1 UNK         0.3450 
    100 H100      -59.9796  -29.9659   10.0348 H         1 UNK         0.3450 
    101 H101      -55.8012  -28.7417   10.0518 H         1 UNK         0.2987 
    102 H102      -55.0992  -27.0691   11.3804 H         1 UNK         0.0766 
    103 H103      -56.6055  -25.1518   11.9893 H         1 UNK         0.0798 
    104 H104      -57.8236  -26.2812   12.5793 H         1 UNK         0.0798 
    105 H105      -57.4079  -26.2414   10.8697 H         1 UNK         0.0798 
    106 H106      -55.7913  -27.7251   14.1241 H         1 UNK         0.3198 
    107 H107      -54.6946  -26.6781   15.8989 H         1 UNK         0.0843 
    108 H108      -52.6435  -28.0642   16.3755 H         1 UNK         0.0831 
    109 H109      -52.1247  -27.8740   14.7021 H         1 UNK         0.0831 
    110 H110      -53.5948  -28.7640   15.0761 H         1 UNK         0.0831 
    111 H111      -52.1977  -25.2471   15.0704 H         1 UNK         0.3133 
    112 H112      -52.0202  -23.0212   16.4018 H         1 UNK         0.0566 
    113 H113      -51.3467  -22.4281   18.7366 H         1 UNK         0.0814 
    114 H114      -53.0920  -22.5520   18.5804 H         1 UNK         0.0814 
    115 H115      -52.1919  -23.8480   19.3521 H         1 UNK         0.0814 
    116 H116      -50.1348  -24.1409   16.2560 H         1 UNK         0.3091 
    117 H117      -48.3553  -26.4714   18.1143 H         1 UNK         0.0702 
    118 H118      -48.2618  -27.8559   16.0501 H         1 UNK         0.0785 
    119 H119      -49.7184  -27.0782   15.4335 H         1 UNK         0.0785 
    120 H120      -49.7988  -28.0930   16.8678 H         1 UNK         0.0785 
    121 H121      -47.9674  -25.3505   15.4952 H         1 UNK         0.2998 
    122 H122      -46.5228  -22.2634   16.6372 H         1 UNK         0.0697 
    123 H123      -44.7414  -23.0471   15.1124 H         1 UNK         0.0825 
    124 H124      -44.7101  -23.9933   16.5917 H         1 UNK         0.0825 
    125 H125      -45.3977  -24.6823   15.1264 H         1 UNK         0.0825 
    126 H126      -47.0470  -23.1700   14.0069 H         1 UNK         0.3029 
    127 H127      -50.3883  -21.8323   13.7428 H         1 UNK         0.0897 
    128 H128      -49.2771  -20.7819   11.7877 H         1 UNK         0.0792 
    129 H129      -48.7528  -20.0059   13.2744 H         1 UNK         0.0792 
    130 H130      -47.6896  -21.1446   12.4593 H         1 UNK         0.0792 
    131 H131      -48.8555  -23.2874   11.8543 H         1 UNK         0.3086 
    132 H132      -49.9841  -26.5649   12.7923 H         1 UNK         0.0583 
    133 H133      -51.7130  -25.4141   11.3015 H         1 UNK         0.1020 
    134 H134      -50.4171  -24.8600   10.2822 H         1 UNK         0.1020 
    135 H135      -52.6545  -27.8155   11.3687 H         1 UNK         0.0694 
    136 H136      -53.0885  -26.9280    9.9249 H         1 UNK         0.0694 
    137 H137      -48.1462  -25.6380   10.8095 H         1 UNK         0.2989 
    138 H138      -45.1877  -25.9148   12.7778 H         1 UNK         0.1055 
    139 H139      -45.7150  -28.2033   11.9569 H         1 UNK         0.0806 
    140 H140      -44.6172  -27.3922   10.8537 H         1 UNK         0.0806 
    141 H141      -46.3255  -27.5535   10.4440 H         1 UNK         0.0806 
    142 H142      -45.6063  -25.1458   10.0582 H         1 UNK         0.3061 
    143 H143      -45.9580  -21.6370   10.6782 H         1 UNK         0.0734 
    144 H144      -43.9904  -21.5827    9.1871 H         1 UNK         0.0832 
    145 H145      -43.5135  -22.1650   10.7717 H         1 UNK         0.0832 
    146 H146      -43.6988  -23.3035    9.4456 H         1 UNK         0.0832 
    147 H147      -45.8819  -22.8891    8.2063 H         1 UNK         0.3156 
    148 H148      -49.4437  -23.1946    7.8277 H         1 UNK         0.0589 
    149 H149      -46.9313  -22.1231    6.4276 H         1 UNK         0.0808 
    150 H150      -48.5569  -22.2127    5.7632 H         1 UNK         0.0808 
    151 H151      -48.2189  -21.1325    7.1040 H         1 UNK         0.0808 
    152 H152      -46.9658  -24.6897    7.0319 H         1 UNK         0.3098 
    153 H153      -47.4112  -26.6184    5.6527 H         1 UNK         0.0720 
    154 H154      -46.6627  -26.9641    8.0310 H         1 UNK         0.0791 
    155 H155      -46.9978  -28.5107    7.2775 H         1 UNK         0.0791 
    156 H156      -48.1617  -27.8100    8.3983 H         1 UNK         0.0791 
    157 H157      -50.1222  -27.4152    6.1273 H         1 UNK         0.3028 
@<TRIPOS>BOND
     1    1    2 1    
     2    1   82 1    
     3    1   83 1    
     4    1   84 1    
     5    2    3 2    
     6    2    4 am   BACKBONE|DICT|INTERRES
     7    4    5 1    
     8    4   85 1    
     9    5    6 1    
    10    5   80 1    
    11    5   86 1    
    12    6    7 1    
    13    6   87 1    
    14    6   88 1    
    15    7    8 1    
    16    8    9 1    
    17    8   89 1    
    18    8   90 1    
    19    9   10 ar   
    20    9   14 ar   
    21   10   11 ar   
    22   10   91 1    
    23   11   12 ar   
    24   11   58 1    
    25   12   13 ar   
    26   12   92 1    
    27   13   14 ar   
    28   13   15 1    
    29   14   93 1    
    30   15   16 1    
    31   15   94 1    
    32   15   95 1    
    33   16   17 1    
    34   17   18 1    
    35   17   96 1    
    36   17   97 1    
    37   18   19 1    
    38   18   22 1    
    39   18   98 1    
    40   19   20 am   BACKBONE|DICT|INTERRES
    41   19   21 2    
    42   20   99 1    
    43   20  100 1    
    44   22   23 am   BACKBONE|DICT|INTERRES
    45   22  101 1    
    46   23   24 2    
    47   23   25 1    
    48   25   26 1    
    49   25   27 1    
    50   25  102 1    
    51   26  103 1    
    52   26  104 1    
    53   26  105 1    
    54   27   28 am   BACKBONE|DICT|INTERRES
    55   27  106 1    
    56   28   29 2    
    57   28   30 1    
    58   30   31 1    
    59   30   32 1    
    60   30  107 1    
    61   31  108 1    
    62   31  109 1    
    63   31  110 1    
    64   32   33 am   BACKBONE|DICT|INTERRES
    65   32  111 1    
    66   33   34 2    
    67   33   35 1    
    68   35   36 1    
    69   35   37 1    
    70   35  112 1    
    71   36  113 1    
    72   36  114 1    
    73   36  115 1    
    74   37   38 am   BACKBONE|DICT|INTERRES
    75   37  116 1    
    76   38   39 2    
    77   38   40 1    
    78   40   41 1    
    79   40   42 1    
    80   40  117 1    
    81   41  118 1    
    82   41  119 1    
    83   41  120 1    
    84   42   43 am   BACKBONE|DICT|INTERRES
    85   42  121 1    
    86   43   44 2    
    87   43   45 1    
    88   45   46 1    
    89   45   47 1    
    90   45  122 1    
    91   46  123 1    
    92   46  124 1    
    93   46  125 1    
    94   47   48 am   BACKBONE|DICT|INTERRES
    95   47  126 1    
    96   48   49 2    
    97   48   50 1    
    98   50   51 1    
    99   50   52 1    
   100   50  127 1    
   101   51  128 1    
   102   51  129 1    
   103   51  130 1    
   104   52   53 am   BACKBONE|DICT|INTERRES
   105   52  131 1    
   106   53   54 2    
   107   53   55 1    
   108   55   56 1    
   109   55   59 1    
   110   55  132 1    
   111   56   57 1    
   112   56  133 1    
   113   56  134 1    
   114   57   58 1    
   115   58  135 1    
   116   58  136 1    
   117   59   60 am   BACKBONE|DICT|INTERRES
   118   59  137 1    
   119   60   61 2    
   120   60   62 1    
   121   62   63 1    
   122   62   64 1    
   123   62  138 1    
   124   63  139 1    
   125   63  140 1    
   126   63  141 1    
   127   64   65 am   BACKBONE|DICT|INTERRES
   128   64  142 1    
   129   65   66 2    
   130   65   67 1    
   131   67   68 1    
   132   67   69 1    
   133   67  143 1    
   134   68  144 1    
   135   68  145 1    
   136   68  146 1    
   137   69   70 am   BACKBONE|DICT|INTERRES
   138   69  147 1    
   139   70   71 2    
   140   70   72 1    
   141   72   73 1    
   142   72   74 1    
   143   72  148 1    
   144   73  149 1    
   145   73  150 1    
   146   73  151 1    
   147   74   75 am   BACKBONE|DICT|INTERRES
   148   74  152 1    
   149   75   76 2    
   150   75   77 1    
   151   77   78 1    
   152   77   79 1    
   153   77  153 1    
   154   78  154 1    
   155   78  155 1    
   156   78  156 1    
   157   79   80 am   BACKBONE|DICT|INTERRES
   158   79  157 1    
   159   80   81 2    
@<TRIPOS>SUBSTRUCTURE
     1 UNK         1 GROUP             0       ****    0 ROOT    
