@<TRIPOS>MOLECULE
3R207
157   159    1
SMALL
USER_CHARGES


@<TRIPOS>ATOM
      1 CA        -50.1985  -20.7707    7.9750 C.3       0 UNK        -0.1975 
      2 C         -49.7560  -22.2078    8.2018 C.2       0 UNK         0.4852 
      3 O         -48.9320  -22.7177    7.4425 O.2       0 UNK        -0.5216 
      4 N         -50.2772  -22.8549    9.2542 N.am      1 UNK        -0.4461 
      5 CA        -50.0162  -24.2545    9.6257 C.3       1 UNK         0.0864 
      6 C6        -50.6129  -25.2724    8.6241 C.3       14 UNK        -0.0898 
      7 S7        -52.3999  -25.0660    8.3057 S.3       14 UNK        -0.2598 
      8 C8        -53.1480  -26.2737    9.4541 C.3       14 UNK         0.0286 
      9 C9        -52.8994  -27.7577    9.1680 C.ar      14 UNK        -0.0844 
     10 C10       -52.0618  -28.2239    8.1446 C.ar      14 UNK        -0.0881 
     11 C11       -51.7524  -29.5831    8.0372 C.ar      14 UNK        -0.0643 
     12 C12       -52.3657  -30.4990    8.8978 C.ar      14 UNK        -0.0930 
     13 C13       -53.2534  -30.0570    9.8814 C.ar      14 UNK        -0.0827 
     14 C14       -53.5031  -28.6894   10.0167 C.ar      14 UNK        -0.1249 
     15 C15       -53.9410  -31.0436   10.8110 C.3       14 UNK         0.0141 
     16 S16       -53.2305  -30.9802   12.4846 S.3       14 UNK        -0.2313 
     17 C17       -54.6145  -31.6559   13.4572 C.3       14 UNK        -0.0915 
     18 CA        -55.6179  -30.5473   13.8886 C.3       13 UNK         0.0968 
     19 C         -56.9492  -31.0963   14.4745 C.2       13 UNK         0.5732 
     20 N         -57.9062  -30.2211   14.7544 N.am      13 UNK        -0.7310 
     21 O         -57.1253  -32.2966   14.6735 O.2       13 UNK        -0.5035 
     22 N         -55.0247  -29.5051   14.7424 N.am      13 UNK        -0.4233 
     23 C         -54.5942  -29.6527   16.0038 C.2       13 UNK         0.4989 
     24 O         -54.5200  -30.7317   16.5923 O.2       13 UNK        -0.4996 
     25 CA        -54.2058  -28.3659   16.7536 C.3       12 UNK         0.0216 
     26 CB        -52.7132  -28.0517   16.5694 C.3       12 UNK        -0.1964 
     27 N         -55.0100  -27.2201   16.3182 N.am      12 UNK        -0.4276 
     28 C         -56.2601  -26.9795   16.7451 C.2       12 UNK         0.5020 
     29 O         -56.8131  -27.6287   17.6336 O.2       12 UNK        -0.5489 
     30 CA        -57.0417  -25.8369   16.0664 C.3       11 UNK         0.0294 
     31 CB        -56.9049  -24.5383   16.8776 C.3       11 UNK        -0.2019 
     32 N         -56.6342  -25.5843   14.6823 N.am      11 UNK        -0.4493 
     33 C         -56.7552  -26.4545   13.6694 C.2       11 UNK         0.4932 
     34 O         -57.3174  -27.5448   13.7704 O.2       11 UNK        -0.5029 
     35 CA        -56.0860  -26.0762   12.3336 C.3       10 UNK         0.0280 
     36 CB        -57.1280  -25.5290   11.3460 C.3       10 UNK        -0.1976 
     37 N         -54.9783  -25.1174   12.4550 N.am      10 UNK        -0.4242 
     38 C         -53.8666  -25.3054   13.1804 C.2       10 UNK         0.5072 
     39 O         -53.6508  -26.3142   13.8576 O.2       10 UNK        -0.5224 
     40 CA        -52.8689  -24.1440   13.2049 C.3       9 UNK         0.0343 
     41 CB        -53.3863  -22.9976   14.0957 C.3       9 UNK        -0.2003 
     42 N         -51.5899  -24.6291   13.7126 N.am      9 UNK        -0.4272 
     43 C         -50.4051  -24.0416   13.5149 C.2       9 UNK         0.4988 
     44 O         -50.2547  -22.9960   12.8796 O.2       9 UNK        -0.5108 
     45 CA        -49.1627  -24.7349   14.1043 C.3       8 UNK         0.0248 
     46 CB        -48.8790  -24.2041   15.5185 C.3       8 UNK        -0.2001 
     47 N         -49.1843  -26.2036   14.1299 N.am      8 UNK        -0.4140 
     48 C         -49.3971  -26.9955   13.0704 C.2       8 UNK         0.5028 
     49 O         -49.8006  -26.5929   11.9776 O.2       8 UNK        -0.5428 
     50 CA        -49.1054  -28.4956   13.2603 C.3       7 UNK         0.0264 
     51 CB        -50.3244  -29.2145   13.8547 C.3       7 UNK        -0.1988 
     52 N         -48.7740  -29.0957   11.9664 N.am      7 UNK        -0.4454 
     53 C         -47.6155  -28.8802   11.3244 C.2       7 UNK         0.5027 
     54 O         -46.6179  -28.4206   11.8892 O.2       7 UNK        -0.5083 
     55 CA        -47.5745  -29.1849    9.8059 C.3       6 UNK         0.0844 
     56 C56       -48.9902  -29.1846    9.1701 C.3       14 UNK        -0.0967 
     57 S57       -49.0419  -29.3188    7.3475 S.3       14 UNK        -0.2604 
     58 C58       -50.6945  -30.0535    7.0430 C.3       14 UNK         0.0134 
     59 N         -46.6741  -28.2147    9.1777 N.am      6 UNK        -0.4116 
     60 C         -45.3792  -28.4380    8.9162 C.2       5 UNK         0.5034 
     61 O         -44.8352  -29.5394    9.0266 O.2       5 UNK        -0.5045 
     62 CA        -44.5436  -27.2150    8.4940 C.3       5 UNK         0.0224 
     63 CB        -43.1850  -27.5864    7.8604 C.3       5 UNK        -0.1978 
     64 N         -45.2885  -26.2770    7.6499 N.am      5 UNK        -0.4737 
     65 C         -45.7503  -26.4697    6.4056 C.2       4 UNK         0.5027 
     66 O         -45.5703  -27.4986    5.7540 O.2       4 UNK        -0.5211 
     67 CA        -46.5672  -25.3221    5.7776 C.3       4 UNK         0.0297 
     68 CB        -48.0408  -25.7402    5.6603 C.3       4 UNK        -0.1993 
     69 N         -46.4780  -24.0661    6.5329 N.am      4 UNK        -0.4486 
     70 C         -45.3995  -23.2690    6.5594 C.2       3 UNK         0.4961 
     71 O         -44.4000  -23.4461    5.8626 O.2       3 UNK        -0.5105 
     72 CA        -45.4152  -22.1064    7.5666 C.3       3 UNK         0.0299 
     73 CB        -46.0528  -20.8505    6.9504 C.3       3 UNK        -0.1972 
     74 N         -46.0961  -22.4543    8.8186 N.am      3 UNK        -0.4305 
     75 C         -45.6030  -23.2926    9.7439 C.2       2 UNK         0.5006 
     76 O         -44.5105  -23.8502    9.6458 O.2       2 UNK        -0.5106 
     77 CA        -46.4756  -23.5772   10.9803 C.3       2 UNK         0.0296 
     78 CB        -46.1978  -22.5379   12.0789 C.3       2 UNK        -0.2002 
     79 N         -47.9095  -23.6049   10.6860 N.am      2 UNK        -0.4032 
     80 C         -48.5115  -24.5058    9.8948 C.2       1 UNK         0.5000 
     81 O         -47.9159  -25.4464    9.3575 O.2       1 UNK        -0.5238 
     82 H82       -50.6592  -20.6741    6.9923 H         1 UNK         0.0889 
     83 H83       -49.3390  -20.1023    8.0153 H         1 UNK         0.0889 
     84 H84       -50.9207  -20.4427    8.7223 H         1 UNK         0.0889 
     85 H85       -50.9358  -22.3716    9.8490 H         1 UNK         0.3028 
     86 H86       -50.5211  -24.4171   10.5776 H         1 UNK         0.0864 
     87 H87       -50.4248  -26.2797    8.9890 H         1 UNK         0.0720 
     88 H88       -50.1112  -25.1919    7.6617 H         1 UNK         0.0720 
     89 H89       -54.2246  -26.0980    9.4707 H         1 UNK         0.0814 
     90 H90       -52.7830  -26.0538   10.4580 H         1 UNK         0.0814 
     91 H91       -51.5814  -27.5366    7.4644 H         1 UNK         0.1469 
     92 H92       -52.1378  -31.5531    8.8157 H         1 UNK         0.1381 
     93 H93       -54.1562  -28.3496   10.8080 H         1 UNK         0.1206 
     94 H94       -53.8661  -32.0622   10.4271 H         1 UNK         0.0813 
     95 H95       -55.0050  -30.8062   10.8478 H         1 UNK         0.0813 
     96 H96       -55.1136  -32.4207   12.8594 H         1 UNK         0.0638 
     97 H97       -54.2088  -32.1718   14.3284 H         1 UNK         0.0638 
     98 H98       -55.9206  -30.0314   12.9767 H         1 UNK         0.0568 
     99 H99       -57.7722  -29.2372   14.5390 H         1 UNK         0.3450 
    100 H100      -58.7804  -30.5431   15.1371 H         1 UNK         0.3450 
    101 H101      -55.0488  -28.5719   14.3600 H         1 UNK         0.2987 
    102 H102      -54.3817  -28.5360   17.8182 H         1 UNK         0.0766 
    103 H103      -52.4223  -27.1611   17.1266 H         1 UNK         0.0798 
    104 H104      -52.4637  -27.8889   15.5219 H         1 UNK         0.0798 
    105 H105      -52.0958  -28.8763   16.9281 H         1 UNK         0.0798 
    106 H106      -54.6259  -26.6627   15.5609 H         1 UNK         0.3198 
    107 H107      -58.0950  -26.1258   16.0543 H         1 UNK         0.0843 
    108 H108      -55.8729  -24.1858   16.9072 H         1 UNK         0.0831 
    109 H109      -57.2269  -24.6881   17.9092 H         1 UNK         0.0831 
    110 H110      -57.5219  -23.7417   16.4613 H         1 UNK         0.0831 
    111 H111      -56.1730  -24.7058   14.4987 H         1 UNK         0.3133 
    112 H112      -55.6748  -26.9961   11.9157 H         1 UNK         0.0566 
    113 H113      -56.6928  -25.3588   10.3611 H         1 UNK         0.0814 
    114 H114      -57.9499  -26.2347   11.2154 H         1 UNK         0.0814 
    115 H115      -57.5587  -24.5886   11.6921 H         1 UNK         0.0814 
    116 H116      -55.0836  -24.2481   11.9509 H         1 UNK         0.3091 
    117 H117      -52.7345  -23.7881   12.1811 H         1 UNK         0.0702 
    118 H118      -54.3420  -22.6136   13.7373 H         1 UNK         0.0785 
    119 H119      -53.5286  -23.3235   15.1270 H         1 UNK         0.0785 
    120 H120      -52.6912  -22.1578   14.1065 H         1 UNK         0.0785 
    121 H121      -51.6375  -25.5260   14.1797 H         1 UNK         0.2998 
    122 H122      -48.3213  -24.4575   13.4682 H         1 UNK         0.0697 
    123 H123      -49.6575  -24.4990   16.2234 H         1 UNK         0.0825 
    124 H124      -48.8302  -23.1140   15.5248 H         1 UNK         0.0825 
    125 H125      -47.9243  -24.5688   15.8979 H         1 UNK         0.0825 
    126 H126      -48.8858  -26.6340   14.9934 H         1 UNK         0.3029 
    127 H127      -48.2547  -28.6190   13.9343 H         1 UNK         0.0897 
    128 H128      -50.2073  -30.2981   13.8283 H         1 UNK         0.0792 
    129 H129      -51.2418  -28.9607   13.3214 H         1 UNK         0.0792 
    130 H130      -50.4616  -28.9341   14.8982 H         1 UNK         0.0792 
    131 H131      -49.5600  -29.4422   11.4373 H         1 UNK         0.3086 
    132 H132      -47.1682  -30.1922    9.6971 H         1 UNK         0.0583 
    133 H133      -49.5632  -30.0201    9.5750 H         1 UNK         0.1020 
    134 H134      -49.5252  -28.2751    9.4455 H         1 UNK         0.1020 
    135 H135      -51.0137  -29.8030    6.0305 H         1 UNK         0.0694 
    136 H136      -50.5976  -31.1398    7.0740 H         1 UNK         0.0694 
    137 H137      -47.0338  -27.2680    9.0992 H         1 UNK         0.2989 
    138 H138      -44.3304  -26.6761    9.4188 H         1 UNK         0.1055 
    139 H139      -42.5703  -28.1531    8.5607 H         1 UNK         0.0806 
    140 H140      -42.6207  -26.6960    7.5833 H         1 UNK         0.0806 
    141 H141      -43.3061  -28.2001    6.9675 H         1 UNK         0.0806 
    142 H142      -45.5149  -25.3936    8.0878 H         1 UNK         0.3061 
    143 H143      -46.1787  -25.1439    4.7727 H         1 UNK         0.0734 
    144 H144      -48.6774  -24.9125    5.3470 H         1 UNK         0.0832 
    145 H145      -48.1580  -26.5403    4.9284 H         1 UNK         0.0832 
    146 H146      -48.4154  -26.1235    6.6090 H         1 UNK         0.0832 
    147 H147      -47.2932  -23.7973    7.0784 H         1 UNK         0.3156 
    148 H148      -44.3773  -21.8666    7.8079 H         1 UNK         0.0589 
    149 H149      -45.5096  -20.5411    6.0564 H         1 UNK         0.0808 
    150 H150      -47.0881  -21.0190    6.6548 H         1 UNK         0.0808 
    151 H151      -46.0330  -20.0115    7.6460 H         1 UNK         0.0808 
    152 H152      -47.0219  -22.0751    8.9518 H         1 UNK         0.3098 
    153 H153      -46.1976  -24.5626   11.3610 H         1 UNK         0.0720 
    154 H154      -45.1370  -22.5148   12.3329 H         1 UNK         0.0791 
    155 H155      -46.7411  -22.7651   12.9956 H         1 UNK         0.0791 
    156 H156      -46.4787  -21.5318   11.7647 H         1 UNK         0.0791 
    157 H157      -48.4796  -22.8802   11.1015 H         1 UNK         0.3028 
@<TRIPOS>BOND
     1    1    2 1    
     2    1   82 1    
     3    1   83 1    
     4    1   84 1    
     5    2    3 2    
     6    2    4 am   BACKBONE|DICT|INTERRES
     7    4    5 1    
     8    4   85 1    
     9    5    6 1    
    10    5   80 1    
    11    5   86 1    
    12    6    7 1    
    13    6   87 1    
    14    6   88 1    
    15    7    8 1    
    16    8    9 1    
    17    8   89 1    
    18    8   90 1    
    19    9   10 ar   
    20    9   14 ar   
    21   10   11 ar   
    22   10   91 1    
    23   11   12 ar   
    24   11   58 1    
    25   12   13 ar   
    26   12   92 1    
    27   13   14 ar   
    28   13   15 1    
    29   14   93 1    
    30   15   16 1    
    31   15   94 1    
    32   15   95 1    
    33   16   17 1    
    34   17   18 1    
    35   17   96 1    
    36   17   97 1    
    37   18   19 1    
    38   18   22 1    
    39   18   98 1    
    40   19   20 am   BACKBONE|DICT|INTERRES
    41   19   21 2    
    42   20   99 1    
    43   20  100 1    
    44   22   23 am   BACKBONE|DICT|INTERRES
    45   22  101 1    
    46   23   24 2    
    47   23   25 1    
    48   25   26 1    
    49   25   27 1    
    50   25  102 1    
    51   26  103 1    
    52   26  104 1    
    53   26  105 1    
    54   27   28 am   BACKBONE|DICT|INTERRES
    55   27  106 1    
    56   28   29 2    
    57   28   30 1    
    58   30   31 1    
    59   30   32 1    
    60   30  107 1    
    61   31  108 1    
    62   31  109 1    
    63   31  110 1    
    64   32   33 am   BACKBONE|DICT|INTERRES
    65   32  111 1    
    66   33   34 2    
    67   33   35 1    
    68   35   36 1    
    69   35   37 1    
    70   35  112 1    
    71   36  113 1    
    72   36  114 1    
    73   36  115 1    
    74   37   38 am   BACKBONE|DICT|INTERRES
    75   37  116 1    
    76   38   39 2    
    77   38   40 1    
    78   40   41 1    
    79   40   42 1    
    80   40  117 1    
    81   41  118 1    
    82   41  119 1    
    83   41  120 1    
    84   42   43 am   BACKBONE|DICT|INTERRES
    85   42  121 1    
    86   43   44 2    
    87   43   45 1    
    88   45   46 1    
    89   45   47 1    
    90   45  122 1    
    91   46  123 1    
    92   46  124 1    
    93   46  125 1    
    94   47   48 am   BACKBONE|DICT|INTERRES
    95   47  126 1    
    96   48   49 2    
    97   48   50 1    
    98   50   51 1    
    99   50   52 1    
   100   50  127 1    
   101   51  128 1    
   102   51  129 1    
   103   51  130 1    
   104   52   53 am   BACKBONE|DICT|INTERRES
   105   52  131 1    
   106   53   54 2    
   107   53   55 1    
   108   55   56 1    
   109   55   59 1    
   110   55  132 1    
   111   56   57 1    
   112   56  133 1    
   113   56  134 1    
   114   57   58 1    
   115   58  135 1    
   116   58  136 1    
   117   59   60 am   BACKBONE|DICT|INTERRES
   118   59  137 1    
   119   60   61 2    
   120   60   62 1    
   121   62   63 1    
   122   62   64 1    
   123   62  138 1    
   124   63  139 1    
   125   63  140 1    
   126   63  141 1    
   127   64   65 am   BACKBONE|DICT|INTERRES
   128   64  142 1    
   129   65   66 2    
   130   65   67 1    
   131   67   68 1    
   132   67   69 1    
   133   67  143 1    
   134   68  144 1    
   135   68  145 1    
   136   68  146 1    
   137   69   70 am   BACKBONE|DICT|INTERRES
   138   69  147 1    
   139   70   71 2    
   140   70   72 1    
   141   72   73 1    
   142   72   74 1    
   143   72  148 1    
   144   73  149 1    
   145   73  150 1    
   146   73  151 1    
   147   74   75 am   BACKBONE|DICT|INTERRES
   148   74  152 1    
   149   75   76 2    
   150   75   77 1    
   151   77   78 1    
   152   77   79 1    
   153   77  153 1    
   154   78  154 1    
   155   78  155 1    
   156   78  156 1    
   157   79   80 am   BACKBONE|DICT|INTERRES
   158   79  157 1    
   159   80   81 2    
@<TRIPOS>SUBSTRUCTURE
     1 UNK         1 GROUP             0       ****    0 ROOT    
