@<TRIPOS>MOLECULE
3R207
157   159    1
SMALL
USER_CHARGES


@<TRIPOS>ATOM
      1 CA        -47.7081  -29.5515    2.6867 C.3       0 UNK        -0.1975 
      2 C         -48.0467  -28.4543    3.6840 C.2       0 UNK         0.4852 
      3 O         -47.1998  -28.0856    4.4979 O.2       0 UNK        -0.5216 
      4 N         -49.2688  -27.9037    3.6082 N.am      1 UNK        -0.4461 
      5 CA        -49.8407  -26.8916    4.5174 C.3       1 UNK         0.0864 
      6 C6        -49.9766  -27.4305    5.9742 C.3       14 UNK        -0.0898 
      7 S7        -51.5576  -26.9638    6.7611 S.3       14 UNK        -0.2598 
      8 C8        -52.2930  -28.5874    7.1519 C.3       14 UNK         0.0286 
      9 C9        -51.8587  -29.1141    8.5161 C.ar      14 UNK        -0.0844 
     10 C10       -50.5595  -29.5904    8.7165 C.ar      14 UNK        -0.0881 
     11 C11       -50.1643  -30.0891    9.9606 C.ar      14 UNK        -0.0643 
     12 C12       -51.0869  -30.1327   11.0093 C.ar      14 UNK        -0.0930 
     13 C13       -52.3946  -29.6714   10.8224 C.ar      14 UNK        -0.0827 
     14 C14       -52.7683  -29.1502    9.5784 C.ar      14 UNK        -0.1249 
     15 C15       -53.3875  -29.7022   11.9769 C.3       14 UNK         0.0141 
     16 S16       -54.8972  -30.6375   11.5815 S.3       14 UNK        -0.2313 
     17 C17       -55.8323  -30.4899   13.1425 C.3       14 UNK        -0.0915 
     18 CA        -56.8804  -29.3469   13.1016 C.3       13 UNK         0.0968 
     19 C         -57.9022  -29.4795   14.2620 C.2       13 UNK         0.5732 
     20 N         -59.0028  -30.1854   14.0401 N.am      13 UNK        -0.7310 
     21 O         -57.6897  -28.9906   15.3690 O.2       13 UNK        -0.5035 
     22 N         -56.2343  -28.0273   13.0861 N.am      13 UNK        -0.4233 
     23 C         -56.8128  -26.9046   12.6467 C.2       13 UNK         0.4989 
     24 O         -57.9615  -26.8546   12.2015 O.2       13 UNK        -0.4996 
     25 CA        -55.9351  -25.6387   12.6734 C.3       12 UNK         0.0216 
     26 CB        -56.6866  -24.3679   12.2209 C.3       12 UNK        -0.1964 
     27 N         -55.2625  -25.4168   13.9590 N.am      12 UNK        -0.4276 
     28 C         -55.8254  -25.1792   15.1532 C.2       12 UNK         0.5020 
     29 O         -57.0408  -25.1736   15.3582 O.2       12 UNK        -0.5489 
     30 CA        -54.8447  -24.8586   16.2994 C.3       11 UNK         0.0294 
     31 CB        -55.5341  -24.6798   17.6696 C.3       11 UNK        -0.2019 
     32 N         -53.7373  -25.8177   16.3749 N.am      11 UNK        -0.4493 
     33 C         -53.8013  -27.1220   16.6803 C.2       11 UNK         0.4932 
     34 O         -54.8342  -27.7008   17.0140 O.2       11 UNK        -0.5029 
     35 CA        -52.5006  -27.9422   16.5814 C.3       10 UNK         0.0280 
     36 CB        -52.5841  -28.9166   15.3993 C.3       10 UNK        -0.1976 
     37 N         -51.2911  -27.1287   16.4321 N.am      10 UNK        -0.4242 
     38 C         -50.6921  -26.4617   17.4281 C.2       10 UNK         0.5072 
     39 O         -51.0751  -26.4866   18.5985 O.2       10 UNK        -0.5224 
     40 CA        -49.4711  -25.6032   17.0528 C.3       9 UNK         0.0343 
     41 CB        -48.2039  -26.4694   16.9777 C.3       9 UNK        -0.2003 
     42 N         -49.6428  -24.8666   15.7960 N.am      9 UNK        -0.4272 
     43 C         -50.5715  -23.9195   15.5905 C.2       9 UNK         0.4988 
     44 O         -51.3760  -23.5491   16.4454 O.2       9 UNK        -0.5108 
     45 CA        -50.6485  -23.3096   14.1819 C.3       8 UNK         0.0248 
     46 CB        -49.5258  -22.2826   13.9639 C.3       8 UNK        -0.2001 
     47 N         -50.6035  -24.3226   13.1278 N.am      8 UNK        -0.4140 
     48 C         -51.5141  -25.2898   12.9538 C.2       8 UNK         0.5028 
     49 O         -52.5331  -25.4082   13.6339 O.2       8 UNK        -0.5428 
     50 CA        -51.2120  -26.3354   11.8731 C.3       7 UNK         0.0264 
     51 CB        -51.5439  -25.8013   10.4723 C.3       7 UNK        -0.1988 
     52 N         -49.8249  -26.7989   11.9269 N.am      7 UNK        -0.4454 
     53 C         -49.3044  -27.4924   12.9503 C.2       7 UNK         0.5027 
     54 O         -49.9534  -27.8434   13.9358 O.2       7 UNK        -0.5083 
     55 CA        -47.7954  -27.7984   12.9063 C.3       6 UNK         0.0844 
     56 C56       -47.4856  -29.1804   12.2794 C.3       14 UNK        -0.0967 
     57 S57       -47.5717  -29.2381   10.4553 S.3       14 UNK        -0.2604 
     58 C58       -48.7437  -30.5987   10.1494 C.3       14 UNK         0.0134 
     59 N         -47.0231  -26.6993   12.3176 N.am      6 UNK        -0.4116 
     60 C         -46.8529  -25.5087   12.9117 C.2       5 UNK         0.5034 
     61 O         -47.2965  -25.2295   14.0261 O.2       5 UNK        -0.5045 
     62 CA        -46.1059  -24.4286   12.1107 C.3       5 UNK         0.0224 
     63 CB        -44.5873  -24.6575   12.1703 C.3       5 UNK        -0.1978 
     64 N         -46.5354  -24.3339   10.7117 N.am      5 UNK        -0.4737 
     65 C         -47.7890  -24.0858   10.3076 C.2       4 UNK         0.5027 
     66 O         -48.7196  -23.9018   11.0897 O.2       4 UNK        -0.5211 
     67 CA        -48.0744  -24.0258    8.7956 C.3       4 UNK         0.0297 
     68 CB        -48.6022  -22.6374    8.3992 C.3       4 UNK        -0.1993 
     69 N         -46.9402  -24.3625    7.9306 N.am      4 UNK        -0.4486 
     70 C         -46.4092  -25.5813    7.7787 C.2       3 UNK         0.4961 
     71 O         -46.7419  -26.5567    8.4502 O.2       3 UNK        -0.5105 
     72 CA        -45.3580  -25.7205    6.6626 C.3       3 UNK         0.0299 
     73 CB        -44.6665  -27.0961    6.6675 C.3       3 UNK        -0.1972 
     74 N         -45.9973  -25.5066    5.3634 N.am      3 UNK        -0.4305 
     75 C         -46.2608  -24.3038    4.8265 C.2       2 UNK         0.5006 
     76 O         -45.8637  -23.2437    5.3127 O.2       2 UNK        -0.5106 
     77 CA        -47.1677  -24.2638    3.5807 C.3       2 UNK         0.0296 
     78 CB        -46.3258  -24.3199    2.2962 C.3       2 UNK        -0.2002 
     79 N         -48.1481  -25.3516    3.5698 N.am      2 UNK        -0.4032 
     80 C         -49.1249  -25.5161    4.4758 C.2       1 UNK         0.5000 
     81 O         -49.4469  -24.6367    5.2764 O.2       1 UNK        -0.5238 
     82 H82       -48.5388  -29.7627    2.0137 H         1 UNK         0.0889 
     83 H83       -47.4572  -30.4708    3.2150 H         1 UNK         0.0889 
     84 H84       -46.8482  -29.2592    2.0847 H         1 UNK         0.0889 
     85 H85       -49.9027  -28.2316    2.8915 H         1 UNK         0.3028 
     86 H86       -50.8404  -26.7051    4.1220 H         1 UNK         0.0864 
     87 H87       -49.9122  -28.5178    5.9658 H         1 UNK         0.0720 
     88 H88       -49.1506  -27.1045    6.6107 H         1 UNK         0.0720 
     89 H89       -52.0486  -29.3138    6.3757 H         1 UNK         0.0814 
     90 H90       -53.3783  -28.4806    7.1234 H         1 UNK         0.0814 
     91 H91       -49.8437  -29.5718    7.9086 H         1 UNK         0.1469 
     92 H92       -50.7831  -30.5205   11.9719 H         1 UNK         0.1381 
     93 H93       -53.7756  -28.7827    9.4373 H         1 UNK         0.1206 
     94 H94       -53.6560  -28.6791   12.2360 H         1 UNK         0.0813 
     95 H95       -52.9277  -30.1485   12.8590 H         1 UNK         0.0813 
     96 H96       -55.1484  -30.3661   13.9830 H         1 UNK         0.0638 
     97 H97       -56.3258  -31.4511   13.2984 H         1 UNK         0.0638 
     98 H98       -57.4397  -29.4481   12.1688 H         1 UNK         0.0568 
     99 H99       -59.6708  -30.2968   14.7867 H         1 UNK         0.3450 
    100 H100      -59.1827  -30.6038   13.1407 H         1 UNK         0.3450 
    101 H101      -55.3231  -27.9690   13.5110 H         1 UNK         0.2987 
    102 H102      -55.1382  -25.8144   11.9488 H         1 UNK         0.0766 
    103 H103      -56.0259  -23.5010   12.2061 H         1 UNK         0.0798 
    104 H104      -57.5272  -24.1383   12.8765 H         1 UNK         0.0798 
    105 H105      -57.0847  -24.4874   11.2125 H         1 UNK         0.0798 
    106 H106      -54.2399  -25.4065   13.9121 H         1 UNK         0.3198 
    107 H107      -54.3882  -23.9012   16.0424 H         1 UNK         0.0843 
    108 H108      -56.0745  -25.5760   17.9752 H         1 UNK         0.0831 
    109 H109      -56.2572  -23.8641   17.6359 H         1 UNK         0.0831 
    110 H110      -54.8110  -24.4399   18.4490 H         1 UNK         0.0831 
    111 H111      -52.8384  -25.4567   16.0801 H         1 UNK         0.3133 
    112 H112      -52.4129  -28.5282   17.4987 H         1 UNK         0.0566 
    113 H113      -52.6632  -28.3756   14.4566 H         1 UNK         0.0814 
    114 H114      -51.7027  -29.5561   15.3467 H         1 UNK         0.0814 
    115 H115      -53.4532  -29.5690   15.4871 H         1 UNK         0.0814 
    116 H116      -50.8701  -27.1118   15.5065 H         1 UNK         0.3091 
    117 H117      -49.3305  -24.8666   17.8466 H         1 UNK         0.0702 
    118 H118      -47.3186  -25.8617   16.7896 H         1 UNK         0.0785 
    119 H119      -48.2724  -27.2155   16.1858 H         1 UNK         0.0785 
    120 H120      -48.0386  -27.0019   17.9152 H         1 UNK         0.0785 
    121 H121      -48.9845  -25.0769   15.0511 H         1 UNK         0.2998 
    122 H122      -51.6054  -22.7906   14.0966 H         1 UNK         0.0697 
    123 H123      -48.5394  -22.7456   14.0047 H         1 UNK         0.0825 
    124 H124      -49.5544  -21.5038   14.7271 H         1 UNK         0.0825 
    125 H125      -49.6218  -21.7922   12.9949 H         1 UNK         0.0825 
    126 H126      -49.8237  -24.2691   12.4729 H         1 UNK         0.3029 
    127 H127      -51.8501  -27.1969   12.0663 H         1 UNK         0.0897 
    128 H128      -52.6070  -25.5738   10.3862 H         1 UNK         0.0792 
    129 H129      -51.3078  -26.5387    9.7066 H         1 UNK         0.0792 
    130 H130      -50.9963  -24.8894   10.2358 H         1 UNK         0.0792 
    131 H131      -49.2207  -26.5358   11.1625 H         1 UNK         0.3086 
    132 H132      -47.4815  -27.8694   13.9501 H         1 UNK         0.0583 
    133 H133      -46.4724  -29.4736   12.5584 H         1 UNK         0.1020 
    134 H134      -48.1308  -29.9456   12.7151 H         1 UNK         0.1020 
    135 H135      -48.4300  -31.1239    9.2459 H         1 UNK         0.0694 
    136 H136      -48.6957  -31.3365   10.9514 H         1 UNK         0.0694 
    137 H137      -46.6625  -26.8469   11.3847 H         1 UNK         0.2989 
    138 H138      -46.3255  -23.4689   12.5839 H         1 UNK         0.1055 
    139 H139      -44.2429  -24.7212   13.2037 H         1 UNK         0.0806 
    140 H140      -44.0438  -23.8373   11.7009 H         1 UNK         0.0806 
    141 H141      -44.2956  -25.5828   11.6717 H         1 UNK         0.0806 
    142 H142      -45.8328  -24.4793   10.0018 H         1 UNK         0.3061 
    143 H143      -48.8644  -24.7540    8.5973 H         1 UNK         0.0734 
    144 H144      -49.4827  -22.3696    8.9852 H         1 UNK         0.0832 
    145 H145      -48.8972  -22.6117    7.3496 H         1 UNK         0.0832 
    146 H146      -47.8542  -21.8602    8.5599 H         1 UNK         0.0832 
    147 H147      -46.6114  -23.6332    7.3077 H         1 UNK         0.3156 
    148 H148      -44.5906  -24.9605    6.8240 H         1 UNK         0.0589 
    149 H149      -45.3799  -27.9087    6.5230 H         1 UNK         0.0808 
    150 H150      -43.9162  -27.1660    5.8800 H         1 UNK         0.0808 
    151 H151      -44.1598  -27.2738    7.6169 H         1 UNK         0.0808 
    152 H152      -46.4047  -26.3352    4.9369 H         1 UNK         0.3098 
    153 H153      -47.7131  -23.3179    3.5963 H         1 UNK         0.0720 
    154 H154      -46.9503  -24.2254    1.4076 H         1 UNK         0.0791 
    155 H155      -45.7674  -25.2538    2.2180 H         1 UNK         0.0791 
    156 H156      -45.6018  -23.5041    2.2697 H         1 UNK         0.0791 
    157 H157      -47.9637  -26.1213    2.9433 H         1 UNK         0.3028 
@<TRIPOS>BOND
     1    1    2 1    
     2    1   82 1    
     3    1   83 1    
     4    1   84 1    
     5    2    3 2    
     6    2    4 am   BACKBONE|DICT|INTERRES
     7    4    5 1    
     8    4   85 1    
     9    5    6 1    
    10    5   80 1    
    11    5   86 1    
    12    6    7 1    
    13    6   87 1    
    14    6   88 1    
    15    7    8 1    
    16    8    9 1    
    17    8   89 1    
    18    8   90 1    
    19    9   10 ar   
    20    9   14 ar   
    21   10   11 ar   
    22   10   91 1    
    23   11   12 ar   
    24   11   58 1    
    25   12   13 ar   
    26   12   92 1    
    27   13   14 ar   
    28   13   15 1    
    29   14   93 1    
    30   15   16 1    
    31   15   94 1    
    32   15   95 1    
    33   16   17 1    
    34   17   18 1    
    35   17   96 1    
    36   17   97 1    
    37   18   19 1    
    38   18   22 1    
    39   18   98 1    
    40   19   20 am   BACKBONE|DICT|INTERRES
    41   19   21 2    
    42   20   99 1    
    43   20  100 1    
    44   22   23 am   BACKBONE|DICT|INTERRES
    45   22  101 1    
    46   23   24 2    
    47   23   25 1    
    48   25   26 1    
    49   25   27 1    
    50   25  102 1    
    51   26  103 1    
    52   26  104 1    
    53   26  105 1    
    54   27   28 am   BACKBONE|DICT|INTERRES
    55   27  106 1    
    56   28   29 2    
    57   28   30 1    
    58   30   31 1    
    59   30   32 1    
    60   30  107 1    
    61   31  108 1    
    62   31  109 1    
    63   31  110 1    
    64   32   33 am   BACKBONE|DICT|INTERRES
    65   32  111 1    
    66   33   34 2    
    67   33   35 1    
    68   35   36 1    
    69   35   37 1    
    70   35  112 1    
    71   36  113 1    
    72   36  114 1    
    73   36  115 1    
    74   37   38 am   BACKBONE|DICT|INTERRES
    75   37  116 1    
    76   38   39 2    
    77   38   40 1    
    78   40   41 1    
    79   40   42 1    
    80   40  117 1    
    81   41  118 1    
    82   41  119 1    
    83   41  120 1    
    84   42   43 am   BACKBONE|DICT|INTERRES
    85   42  121 1    
    86   43   44 2    
    87   43   45 1    
    88   45   46 1    
    89   45   47 1    
    90   45  122 1    
    91   46  123 1    
    92   46  124 1    
    93   46  125 1    
    94   47   48 am   BACKBONE|DICT|INTERRES
    95   47  126 1    
    96   48   49 2    
    97   48   50 1    
    98   50   51 1    
    99   50   52 1    
   100   50  127 1    
   101   51  128 1    
   102   51  129 1    
   103   51  130 1    
   104   52   53 am   BACKBONE|DICT|INTERRES
   105   52  131 1    
   106   53   54 2    
   107   53   55 1    
   108   55   56 1    
   109   55   59 1    
   110   55  132 1    
   111   56   57 1    
   112   56  133 1    
   113   56  134 1    
   114   57   58 1    
   115   58  135 1    
   116   58  136 1    
   117   59   60 am   BACKBONE|DICT|INTERRES
   118   59  137 1    
   119   60   61 2    
   120   60   62 1    
   121   62   63 1    
   122   62   64 1    
   123   62  138 1    
   124   63  139 1    
   125   63  140 1    
   126   63  141 1    
   127   64   65 am   BACKBONE|DICT|INTERRES
   128   64  142 1    
   129   65   66 2    
   130   65   67 1    
   131   67   68 1    
   132   67   69 1    
   133   67  143 1    
   134   68  144 1    
   135   68  145 1    
   136   68  146 1    
   137   69   70 am   BACKBONE|DICT|INTERRES
   138   69  147 1    
   139   70   71 2    
   140   70   72 1    
   141   72   73 1    
   142   72   74 1    
   143   72  148 1    
   144   73  149 1    
   145   73  150 1    
   146   73  151 1    
   147   74   75 am   BACKBONE|DICT|INTERRES
   148   74  152 1    
   149   75   76 2    
   150   75   77 1    
   151   77   78 1    
   152   77   79 1    
   153   77  153 1    
   154   78  154 1    
   155   78  155 1    
   156   78  156 1    
   157   79   80 am   BACKBONE|DICT|INTERRES
   158   79  157 1    
   159   80   81 2    
@<TRIPOS>SUBSTRUCTURE
     1 UNK         1 GROUP             0       ****    0 ROOT    
