@<TRIPOS>MOLECULE
3R207
157   159    1
SMALL
USER_CHARGES


@<TRIPOS>ATOM
      1 CA        -50.2205  -24.3618    0.7212 C.3       0 UNK        -0.1975 
      2 C         -49.7935  -25.0792    1.9929 C.2       0 UNK         0.4852 
      3 O         -49.3093  -26.2100    1.9215 O.2       0 UNK        -0.5216 
      4 N         -49.9596  -24.4267    3.1532 N.am      1 UNK        -0.4461 
      5 CA        -49.6314  -24.8977    4.5073 C.3       1 UNK         0.0864 
      6 C6        -50.3599  -26.2138    4.8922 C.3       14 UNK        -0.0898 
      7 S7        -50.3388  -26.5246    6.6861 S.3       14 UNK        -0.2598 
      8 C8        -51.8412  -27.5318    6.8822 C.3       14 UNK         0.0286 
      9 C9        -51.9908  -28.0205    8.3150 C.ar      14 UNK        -0.0844 
     10 C10       -51.0827  -28.9482    8.8294 C.ar      14 UNK        -0.0881 
     11 C11       -51.1930  -29.4012   10.1458 C.ar      14 UNK        -0.0643 
     12 C12       -52.2375  -28.9334   10.9503 C.ar      14 UNK        -0.0930 
     13 C13       -53.1637  -28.0154   10.4417 C.ar      14 UNK        -0.0827 
     14 C14       -53.0319  -27.5580    9.1258 C.ar      14 UNK        -0.1249 
     15 C15       -54.3135  -27.5220   11.3071 C.3       14 UNK         0.0141 
     16 S16       -55.6933  -28.7033   11.2602 S.3       14 UNK        -0.2313 
     17 C17       -57.1028  -27.6871   11.8215 C.3       14 UNK        -0.0915 
     18 CA        -57.0931  -27.2915   13.3302 C.3       13 UNK         0.0968 
     19 C         -58.3639  -26.4919   13.7437 C.2       13 UNK         0.5732 
     20 N         -58.8834  -26.6531   14.9550 N.am      13 UNK        -0.7310 
     21 O         -58.8726  -25.6860   12.9680 O.2       13 UNK        -0.5035 
     22 N         -56.7405  -28.3838   14.2523 N.am      13 UNK        -0.4233 
     23 C         -57.3039  -29.5959   14.3467 C.2       13 UNK         0.4989 
     24 O         -58.2713  -29.9585   13.6757 O.2       13 UNK        -0.4996 
     25 CA        -56.7003  -30.5655   15.3894 C.3       12 UNK         0.0216 
     26 CB        -56.6403  -32.0195   14.8738 C.3       12 UNK        -0.1964 
     27 N         -55.3992  -30.1279   15.9233 N.am      12 UNK        -0.4276 
     28 C         -54.2351  -30.0132   15.2644 C.2       12 UNK         0.5020 
     29 O         -54.0441  -30.3897   14.1077 O.2       12 UNK        -0.5489 
     30 CA        -53.1143  -29.2685   16.0108 C.3       11 UNK         0.0294 
     31 CB        -51.7462  -29.9333   15.7911 C.3       11 UNK        -0.2019 
     32 N         -53.0418  -27.8679   15.5839 N.am      11 UNK        -0.4493 
     33 C         -53.9873  -26.9423   15.7986 C.2       11 UNK         0.4932 
     34 O         -55.0557  -27.1800   16.3647 O.2       11 UNK        -0.5029 
     35 CA        -53.6906  -25.5217   15.2854 C.3       10 UNK         0.0280 
     36 CB        -54.7232  -24.4775   15.7580 C.3       10 UNK        -0.1976 
     37 N         -52.3261  -25.0864   15.5966 N.am      10 UNK        -0.4242 
     38 C         -51.7436  -24.9762   16.8009 C.2       10 UNK         0.5072 
     39 O         -52.3218  -25.1764   17.8699 O.2       10 UNK        -0.5224 
     40 CA        -50.2483  -24.5999   16.8257 C.3       9 UNK         0.0343 
     41 CB        -49.3979  -25.8438   17.1303 C.3       9 UNK        -0.2003 
     42 N         -49.7750  -23.9934   15.5777 N.am      9 UNK        -0.4272 
     43 C         -50.0874  -22.7560   15.1660 C.2       9 UNK         0.4988 
     44 O         -50.7295  -21.9501   15.8400 O.2       9 UNK        -0.5108 
     45 CA        -49.6453  -22.3683   13.7445 C.3       8 UNK         0.0248 
     46 CB        -48.1806  -21.9024   13.7353 C.3       8 UNK        -0.2001 
     47 N         -49.8243  -23.4560   12.7776 N.am      8 UNK        -0.4140 
     48 C         -51.0044  -23.9967   12.4384 C.2       8 UNK         0.5028 
     49 O         -52.0881  -23.6047   12.8686 O.2       8 UNK        -0.5428 
     50 CA        -50.9704  -25.2150   11.5065 C.3       7 UNK         0.0264 
     51 CB        -50.7571  -24.7911   10.0468 C.3       7 UNK        -0.1988 
     52 N         -49.9400  -26.1724   11.9078 N.am      7 UNK        -0.4454 
     53 C         -50.0317  -26.9778   12.9768 C.2       7 UNK         0.5027 
     54 O         -51.0313  -27.0525   13.6932 O.2       7 UNK        -0.5083 
     55 CA        -48.7860  -27.8062   13.3532 C.3       6 UNK         0.0844 
     56 C56       -48.8987  -29.2898   12.9314 C.3       14 UNK        -0.0967 
     57 S57       -48.6243  -29.6094   11.1563 S.3       14 UNK        -0.2604 
     58 C58       -50.1860  -30.4112   10.6702 C.3       14 UNK         0.0134 
     59 N         -47.5335  -27.1863   12.9134 N.am      6 UNK        -0.4116 
     60 C         -47.0247  -26.0687   13.4463 C.2       5 UNK         0.5034 
     61 O         -47.5552  -25.4437   14.3649 O.2       5 UNK        -0.5045 
     62 CA        -45.7293  -25.5382   12.8181 C.3       5 UNK         0.0224 
     63 CB        -44.5245  -26.3999   13.2285 C.3       5 UNK        -0.1978 
     64 N         -45.7858  -25.4331   11.3567 N.am      5 UNK        -0.4737 
     65 C         -46.6258  -24.6521   10.6685 C.2       4 UNK         0.5027 
     66 O         -47.5509  -24.0316   11.1890 O.2       4 UNK        -0.5211 
     67 CA        -46.3802  -24.5019    9.1568 C.3       4 UNK         0.0297 
     68 CB        -45.0428  -23.7880    8.8806 C.3       4 UNK        -0.1993 
     69 N         -46.4879  -25.7326    8.3650 N.am      4 UNK        -0.4486 
     70 C         -45.7674  -26.8623    8.4445 C.2       3 UNK         0.4961 
     71 O         -44.9050  -27.0831    9.2955 O.2       3 UNK        -0.5105 
     72 CA        -46.0328  -27.9182    7.3552 C.3       3 UNK         0.0299 
     73 CB        -47.1901  -28.8390    7.7690 C.3       3 UNK        -0.1972 
     74 N         -46.3225  -27.3257    6.0452 N.am      3 UNK        -0.4305 
     75 C         -45.4420  -26.6251    5.3126 C.2       2 UNK         0.5006 
     76 O         -44.2613  -26.4716    5.6281 O.2       2 UNK        -0.5106 
     77 CA        -45.9492  -25.9801    4.0079 C.3       2 UNK         0.0296 
     78 CB        -45.5246  -26.8206    2.7925 C.3       2 UNK        -0.2002 
     79 N         -47.3980  -25.7625    3.9519 N.am      2 UNK        -0.4032 
     80 C         -48.1106  -24.9720    4.7655 C.2       1 UNK         0.5000 
     81 O         -47.6192  -24.3271    5.6935 O.2       1 UNK        -0.5238 
     82 H82       -49.3673  -24.2424    0.0540 H         1 UNK         0.0889 
     83 H83       -50.6314  -23.3737    0.9273 H         1 UNK         0.0889 
     84 H84       -50.9811  -24.9434    0.2011 H         1 UNK         0.0889 
     85 H85       -50.3372  -23.4892    3.1213 H         1 UNK         0.3028 
     86 H86       -50.0120  -24.1155    5.1669 H         1 UNK         0.0864 
     87 H87       -49.9327  -27.0778    4.3806 H         1 UNK         0.0720 
     88 H88       -51.4007  -26.1570    4.5694 H         1 UNK         0.0720 
     89 H89       -51.7942  -28.3906    6.2109 H         1 UNK         0.0814 
     90 H90       -52.7105  -26.9456    6.5805 H         1 UNK         0.0814 
     91 H91       -50.2790  -29.3116    8.2042 H         1 UNK         0.1469 
     92 H92       -52.3385  -29.2867   11.9682 H         1 UNK         0.1381 
     93 H93       -53.7442  -26.8460    8.7320 H         1 UNK         0.1206 
     94 H94       -54.6498  -26.5422   10.9649 H         1 UNK         0.0813 
     95 H95       -53.9795  -27.3972   12.3385 H         1 UNK         0.0813 
     96 H96       -58.0112  -28.2456   11.5903 H         1 UNK         0.0638 
     97 H97       -57.1406  -26.7928   11.1971 H         1 UNK         0.0638 
     98 H98       -56.2830  -26.5723   13.4510 H         1 UNK         0.0568 
     99 H99       -59.6993  -26.1224   15.2161 H         1 UNK         0.3450 
    100 H100      -58.4659  -27.2938   15.6100 H         1 UNK         0.3450 
    101 H101      -56.0112  -28.1580   14.9189 H         1 UNK         0.2987 
    102 H102      -57.3876  -30.5500   16.2365 H         1 UNK         0.0766 
    103 H103      -56.2094  -32.6884   15.6186 H         1 UNK         0.0798 
    104 H104      -56.0472  -32.1029   13.9627 H         1 UNK         0.0798 
    105 H105      -57.6383  -32.3938   14.6428 H         1 UNK         0.0798 
    106 H106      -55.4369  -29.7356   16.8556 H         1 UNK         0.3198 
    107 H107      -53.3264  -29.2857   17.0821 H         1 UNK         0.0843 
    108 H108      -51.4880  -29.9645   14.7341 H         1 UNK         0.0831 
    109 H109      -51.7506  -30.9615   16.1547 H         1 UNK         0.0831 
    110 H110      -50.9529  -29.4027   16.3181 H         1 UNK         0.0831 
    111 H111      -52.2344  -27.5996   15.0241 H         1 UNK         0.3133 
    112 H112      -53.7495  -25.5733   14.1973 H         1 UNK         0.0566 
    113 H113      -54.5002  -23.4911   15.3509 H         1 UNK         0.0814 
    114 H114      -55.7288  -24.7434   15.4301 H         1 UNK         0.0814 
    115 H115      -54.7471  -24.3950   16.8451 H         1 UNK         0.0814 
    116 H116      -51.7511  -24.8983   14.7861 H         1 UNK         0.3091 
    117 H117      -50.1029  -23.8787   17.6327 H         1 UNK         0.0702 
    118 H118      -48.3371  -25.5980   17.1837 H         1 UNK         0.0785 
    119 H119      -49.5268  -26.6132   16.3690 H         1 UNK         0.0785 
    120 H120      -49.6780  -26.2838   18.0884 H         1 UNK         0.0785 
    121 H121      -49.1590  -24.5586   14.9986 H         1 UNK         0.2998 
    122 H122      -50.2702  -21.5338   13.4196 H         1 UNK         0.0697 
    123 H123      -47.4991  -22.7035   14.0235 H         1 UNK         0.0825 
    124 H124      -48.0283  -21.0765   14.4314 H         1 UNK         0.0825 
    125 H125      -47.8829  -21.5530   12.7464 H         1 UNK         0.0825 
    126 H126      -48.9813  -23.8005   12.3207 H         1 UNK         0.3029 
    127 H127      -51.9400  -25.7115   11.5739 H         1 UNK         0.0897 
    128 H128      -50.7326  -25.6611    9.3944 H         1 UNK         0.0792 
    129 H129      -49.8278  -24.2407    9.9039 H         1 UNK         0.0792 
    130 H130      -51.5717  -24.1519    9.7045 H         1 UNK         0.0792 
    131 H131      -49.0763  -26.1591   11.3861 H         1 UNK         0.3086 
    132 H132      -48.7622  -27.8089   14.4449 H         1 UNK         0.0583 
    133 H133      -48.1559  -29.8711   13.4800 H         1 UNK         0.1020 
    134 H134      -49.8598  -29.6990   13.2387 H         1 UNK         0.1020 
    135 H135      -49.9685  -31.1382    9.8863 H         1 UNK         0.0694 
    136 H136      -50.6027  -30.9857   11.4986 H         1 UNK         0.0694 
    137 H137      -47.0521  -27.6333   12.1462 H         1 UNK         0.2989 
    138 H138      -45.5738  -24.5308   13.2107 H         1 UNK         0.1055 
    139 H139      -44.4616  -26.4935   14.3138 H         1 UNK         0.0806 
    140 H140      -43.5882  -25.9565   12.8892 H         1 UNK         0.0806 
    141 H141      -44.5851  -27.4077   12.8157 H         1 UNK         0.0806 
    142 H142      -45.1206  -25.9805   10.8151 H         1 UNK         0.3061 
    143 H143      -47.1722  -23.8511    8.7819 H         1 UNK         0.0734 
    144 H144      -44.9327  -23.5584    7.8205 H         1 UNK         0.0832 
    145 H145      -44.9842  -22.8441    9.4243 H         1 UNK         0.0832 
    146 H146      -44.1851  -24.3905    9.1810 H         1 UNK         0.0832 
    147 H147      -47.1527  -25.6725    7.6040 H         1 UNK         0.3156 
    148 H148      -45.1324  -28.5277    7.2533 H         1 UNK         0.0589 
    149 H149      -48.1088  -28.2793    7.9469 H         1 UNK         0.0808 
    150 H150      -47.3947  -29.5940    7.0098 H         1 UNK         0.0808 
    151 H151      -46.9476  -29.3681    8.6909 H         1 UNK         0.0808 
    152 H152      -47.2662  -27.4175    5.6989 H         1 UNK         0.3098 
    153 H153      -45.4716  -25.0013    3.9299 H         1 UNK         0.0720 
    154 H154      -45.7899  -26.3278    1.8568 H         1 UNK         0.0791 
    155 H155      -45.9956  -27.8044    2.7990 H         1 UNK         0.0791 
    156 H156      -44.4446  -26.9752    2.7806 H         1 UNK         0.0791 
    157 H157      -47.9060  -26.2062    3.1898 H         1 UNK         0.3028 
@<TRIPOS>BOND
     1    1    2 1    
     2    1   82 1    
     3    1   83 1    
     4    1   84 1    
     5    2    3 2    
     6    2    4 am   BACKBONE|DICT|INTERRES
     7    4    5 1    
     8    4   85 1    
     9    5    6 1    
    10    5   80 1    
    11    5   86 1    
    12    6    7 1    
    13    6   87 1    
    14    6   88 1    
    15    7    8 1    
    16    8    9 1    
    17    8   89 1    
    18    8   90 1    
    19    9   10 ar   
    20    9   14 ar   
    21   10   11 ar   
    22   10   91 1    
    23   11   12 ar   
    24   11   58 1    
    25   12   13 ar   
    26   12   92 1    
    27   13   14 ar   
    28   13   15 1    
    29   14   93 1    
    30   15   16 1    
    31   15   94 1    
    32   15   95 1    
    33   16   17 1    
    34   17   18 1    
    35   17   96 1    
    36   17   97 1    
    37   18   19 1    
    38   18   22 1    
    39   18   98 1    
    40   19   20 am   BACKBONE|DICT|INTERRES
    41   19   21 2    
    42   20   99 1    
    43   20  100 1    
    44   22   23 am   BACKBONE|DICT|INTERRES
    45   22  101 1    
    46   23   24 2    
    47   23   25 1    
    48   25   26 1    
    49   25   27 1    
    50   25  102 1    
    51   26  103 1    
    52   26  104 1    
    53   26  105 1    
    54   27   28 am   BACKBONE|DICT|INTERRES
    55   27  106 1    
    56   28   29 2    
    57   28   30 1    
    58   30   31 1    
    59   30   32 1    
    60   30  107 1    
    61   31  108 1    
    62   31  109 1    
    63   31  110 1    
    64   32   33 am   BACKBONE|DICT|INTERRES
    65   32  111 1    
    66   33   34 2    
    67   33   35 1    
    68   35   36 1    
    69   35   37 1    
    70   35  112 1    
    71   36  113 1    
    72   36  114 1    
    73   36  115 1    
    74   37   38 am   BACKBONE|DICT|INTERRES
    75   37  116 1    
    76   38   39 2    
    77   38   40 1    
    78   40   41 1    
    79   40   42 1    
    80   40  117 1    
    81   41  118 1    
    82   41  119 1    
    83   41  120 1    
    84   42   43 am   BACKBONE|DICT|INTERRES
    85   42  121 1    
    86   43   44 2    
    87   43   45 1    
    88   45   46 1    
    89   45   47 1    
    90   45  122 1    
    91   46  123 1    
    92   46  124 1    
    93   46  125 1    
    94   47   48 am   BACKBONE|DICT|INTERRES
    95   47  126 1    
    96   48   49 2    
    97   48   50 1    
    98   50   51 1    
    99   50   52 1    
   100   50  127 1    
   101   51  128 1    
   102   51  129 1    
   103   51  130 1    
   104   52   53 am   BACKBONE|DICT|INTERRES
   105   52  131 1    
   106   53   54 2    
   107   53   55 1    
   108   55   56 1    
   109   55   59 1    
   110   55  132 1    
   111   56   57 1    
   112   56  133 1    
   113   56  134 1    
   114   57   58 1    
   115   58  135 1    
   116   58  136 1    
   117   59   60 am   BACKBONE|DICT|INTERRES
   118   59  137 1    
   119   60   61 2    
   120   60   62 1    
   121   62   63 1    
   122   62   64 1    
   123   62  138 1    
   124   63  139 1    
   125   63  140 1    
   126   63  141 1    
   127   64   65 am   BACKBONE|DICT|INTERRES
   128   64  142 1    
   129   65   66 2    
   130   65   67 1    
   131   67   68 1    
   132   67   69 1    
   133   67  143 1    
   134   68  144 1    
   135   68  145 1    
   136   68  146 1    
   137   69   70 am   BACKBONE|DICT|INTERRES
   138   69  147 1    
   139   70   71 2    
   140   70   72 1    
   141   72   73 1    
   142   72   74 1    
   143   72  148 1    
   144   73  149 1    
   145   73  150 1    
   146   73  151 1    
   147   74   75 am   BACKBONE|DICT|INTERRES
   148   74  152 1    
   149   75   76 2    
   150   75   77 1    
   151   77   78 1    
   152   77   79 1    
   153   77  153 1    
   154   78  154 1    
   155   78  155 1    
   156   78  156 1    
   157   79   80 am   BACKBONE|DICT|INTERRES
   158   79  157 1    
   159   80   81 2    
@<TRIPOS>SUBSTRUCTURE
     1 UNK         1 GROUP             0       ****    0 ROOT    
