@<TRIPOS>MOLECULE
3R207
157   159    1
SMALL
USER_CHARGES


@<TRIPOS>ATOM
      1 CA        -46.3011  -30.8694    7.6948 C.3       0 UNK        -0.1975 
      2 C         -47.7071  -30.9739    8.2812 C.2       0 UNK         0.4852 
      3 O         -47.8395  -31.1218    9.4936 O.2       0 UNK        -0.5216 
      4 N         -48.7778  -30.9135    7.4745 N.am      1 UNK        -0.4461 
      5 CA        -48.7760  -30.7977    6.0068 C.3       1 UNK         0.0864 
      6 C6        -50.1058  -31.2810    5.3675 C.3       14 UNK        -0.0898 
      7 S7        -50.6818  -32.8945    6.0066 S.3       14 UNK        -0.2598 
      8 C8        -52.4765  -32.6225    6.2209 C.3       14 UNK         0.0286 
      9 C9        -52.8044  -31.3940    7.0632 C.ar      14 UNK        -0.0844 
     10 C10       -52.3293  -31.2825    8.3720 C.ar      14 UNK        -0.0881 
     11 C11       -52.5984  -30.1378    9.1265 C.ar      14 UNK        -0.0643 
     12 C12       -53.3673  -29.1102    8.5740 C.ar      14 UNK        -0.0930 
     13 C13       -53.8584  -29.2077    7.2660 C.ar      14 UNK        -0.0827 
     14 C14       -53.5729  -30.3579    6.5223 C.ar      14 UNK        -0.1249 
     15 C15       -54.7061  -28.1102    6.6193 C.3       14 UNK         0.0141 
     16 S16       -54.4151  -26.4209    7.2501 S.3       14 UNK        -0.2313 
     17 C17       -55.6389  -26.3171    8.6020 C.3       14 UNK        -0.0915 
     18 CA        -55.1814  -25.3853    9.7651 C.3       13 UNK         0.0968 
     19 C         -55.4226  -23.8716    9.4978 C.2       13 UNK         0.5732 
     20 N         -55.1223  -23.3851    8.3030 N.am      13 UNK        -0.7310 
     21 O         -55.8798  -23.1280   10.3656 O.2       13 UNK        -0.5035 
     22 N         -55.7775  -25.7684   11.0494 N.am      13 UNK        -0.4233 
     23 C         -55.4278  -26.8190   11.7935 C.2       13 UNK         0.4989 
     24 O         -54.5876  -27.6541   11.4578 O.2       13 UNK        -0.4996 
     25 CA        -56.1719  -26.9852   13.1297 C.3       12 UNK         0.0216 
     26 CB        -57.4132  -27.8737   12.9455 C.3       12 UNK        -0.1964 
     27 N         -55.3074  -27.5729   14.1560 N.am      12 UNK        -0.4276 
     28 C         -54.2545  -26.9490   14.6980 C.2       12 UNK         0.5020 
     29 O         -53.9635  -25.7733   14.4577 O.2       12 UNK        -0.5489 
     30 CA        -53.3915  -27.7857   15.6581 C.3       11 UNK         0.0294 
     31 CB        -52.6304  -28.8882   14.8988 C.3       11 UNK        -0.2019 
     32 N         -52.4161  -26.9220   16.3181 N.am      11 UNK        -0.4493 
     33 C         -52.5330  -26.4138   17.5498 C.2       11 UNK         0.4932 
     34 O         -53.4325  -26.7246   18.3333 O.2       11 UNK        -0.5029 
     35 CA        -51.4830  -25.3624   17.9640 C.3       10 UNK         0.0280 
     36 CB        -51.3712  -25.1824   19.4934 C.3       10 UNK        -0.1976 
     37 N         -50.1661  -25.5805   17.3529 N.am      10 UNK        -0.4242 
     38 C         -49.3304  -26.6133   17.5506 C.2       10 UNK         0.5072 
     39 O         -49.5520  -27.5274   18.3464 O.2       10 UNK        -0.5224 
     40 CA        -48.0280  -26.6609   16.7222 C.3       9 UNK         0.0343 
     41 CB        -47.9949  -27.9191   15.8372 C.3       9 UNK        -0.2003 
     42 N         -47.8160  -25.4837   15.8753 N.am      9 UNK        -0.4272 
     43 C         -47.3995  -24.2856   16.3071 C.2       9 UNK         0.4988 
     44 O         -47.0660  -24.0550   17.4696 O.2       9 UNK        -0.5108 
     45 CA        -47.3949  -23.1387   15.2791 C.3       8 UNK         0.0248 
     46 CB        -46.0569  -23.0924   14.5245 C.3       8 UNK        -0.2001 
     47 N         -48.5063  -23.2103   14.3216 N.am      8 UNK        -0.4140 
     48 C         -49.8034  -23.1312   14.6589 C.2       8 UNK         0.5028 
     49 O         -50.1968  -22.9466   15.8107 O.2       8 UNK        -0.5428 
     50 CA        -50.8409  -23.3529   13.5446 C.3       7 UNK         0.0264 
     51 CB        -51.0101  -22.0853   12.6931 C.3       7 UNK        -0.1988 
     52 N         -50.5234  -24.4994   12.6880 N.am      7 UNK        -0.4454 
     53 C         -50.4339  -25.7638   13.1283 C.2       7 UNK         0.5027 
     54 O         -50.6507  -26.0904   14.2945 O.2       7 UNK        -0.5083 
     55 CA        -49.9420  -26.8402   12.1415 C.3       6 UNK         0.0844 
     56 C56       -51.0777  -27.4136   11.2648 C.3       14 UNK        -0.0967 
     57 S57       -50.5282  -28.9785   10.5005 S.3       14 UNK        -0.2604 
     58 C58       -52.0323  -29.9995   10.5287 C.3       14 UNK         0.0134 
     59 N         -48.8098  -26.3695   11.3428 N.am      6 UNK        -0.4116 
     60 C         -47.6101  -26.0527   11.8467 C.2       5 UNK         0.5034 
     61 O         -47.3121  -26.1541   13.0365 O.2       5 UNK        -0.5045 
     62 CA        -46.5873  -25.4733   10.8610 C.3       5 UNK         0.0224 
     63 CB        -45.9490  -26.5870   10.0148 C.3       5 UNK        -0.1978 
     64 N         -47.1883  -24.4585    9.9918 N.am      5 UNK        -0.4737 
     65 C         -47.6285  -23.2673   10.4227 C.2       4 UNK         0.5027 
     66 O         -47.5451  -22.8880   11.5901 O.2       4 UNK        -0.5211 
     67 CA        -48.3059  -22.3593    9.3844 C.3       4 UNK         0.0297 
     68 CB        -47.2545  -21.5621    8.5966 C.3       4 UNK        -0.1993 
     69 N         -49.1649  -23.0959    8.4548 N.am      4 UNK        -0.4486 
     70 C         -50.2818  -23.7481    8.8073 C.2       3 UNK         0.4961 
     71 O         -50.7164  -23.8047    9.9559 O.2       3 UNK        -0.5105 
     72 CA        -51.0149  -24.5036    7.6899 C.3       3 UNK         0.0299 
     73 CB        -51.8592  -23.5331    6.8491 C.3       3 UNK        -0.1972 
     74 N         -50.1198  -25.2641    6.8128 N.am      3 UNK        -0.4305 
     75 C         -49.2847  -26.2277    7.2220 C.2       2 UNK         0.5006 
     76 O         -49.1147  -26.5469    8.4012 O.2       2 UNK        -0.5106 
     77 CA        -48.4906  -26.9525    6.1359 C.3       2 UNK         0.0296 
     78 CB        -47.0186  -26.5025    6.1191 C.3       2 UNK        -0.2002 
     79 N         -48.5912  -28.3773    6.4175 N.am      2 UNK        -0.4032 
     80 C         -48.4679  -29.3642    5.5224 C.2       1 UNK         0.5000 
     81 O         -48.1426  -29.1830    4.3478 O.2       1 UNK        -0.5238 
     82 H82       -45.5541  -30.9556    8.4838 H         1 UNK         0.0889 
     83 H83       -46.1481  -29.9089    7.2044 H         1 UNK         0.0889 
     84 H84       -46.1138  -31.6686    6.9787 H         1 UNK         0.0889 
     85 H85       -49.6949  -30.9920    7.8910 H         1 UNK         0.3028 
     86 H86       -47.9859  -31.4418    5.6175 H         1 UNK         0.0864 
     87 H87       -49.9869  -31.3791    4.2867 H         1 UNK         0.0720 
     88 H88       -50.8847  -30.5309    5.5075 H         1 UNK         0.0720 
     89 H89       -52.9132  -33.5033    6.6933 H         1 UNK         0.0814 
     90 H90       -52.9348  -32.5473    5.2335 H         1 UNK         0.0814 
     91 H91       -51.7313  -32.0790    8.7938 H         1 UNK         0.1469 
     92 H92       -53.5635  -28.2311    9.1697 H         1 UNK         0.1381 
     93 H93       -53.9451  -30.4428    5.5102 H         1 UNK         0.1206 
     94 H94       -54.5032  -28.0891    5.5475 H         1 UNK         0.0813 
     95 H95       -55.7616  -28.3649    6.7221 H         1 UNK         0.0813 
     96 H96       -55.8035  -27.3294    8.9731 H         1 UNK         0.0638 
     97 H97       -56.5994  -25.9966    8.1947 H         1 UNK         0.0638 
     98 H98       -54.1013  -25.4854    9.8915 H         1 UNK         0.0568 
     99 H99       -55.2771  -22.4078    8.1137 H         1 UNK         0.3450 
    100 H100      -54.7758  -23.9979    7.5806 H         1 UNK         0.3450 
    101 H101      -56.4446  -25.0972   11.4072 H         1 UNK         0.2987 
    102 H102      -56.4940  -26.0018   13.4795 H         1 UNK         0.0766 
    103 H103      -57.9708  -27.9771   13.8766 H         1 UNK         0.0798 
    104 H104      -57.1462  -28.8734   12.5996 H         1 UNK         0.0798 
    105 H105      -58.0941  -27.4463   12.2080 H         1 UNK         0.0798 
    106 H106      -55.4641  -28.5458   14.3752 H         1 UNK         0.3198 
    107 H107      -54.0479  -28.2521   16.3959 H         1 UNK         0.0843 
    108 H108      -51.9841  -28.4750   14.1248 H         1 UNK         0.0831 
    109 H109      -53.3145  -29.5846   14.4128 H         1 UNK         0.0831 
    110 H110      -52.0047  -29.4711   15.5750 H         1 UNK         0.0831 
    111 H111      -51.6955  -26.5453   15.7024 H         1 UNK         0.3133 
    112 H112      -51.8403  -24.4168   17.5543 H         1 UNK         0.0566 
    113 H113      -50.6288  -24.4268   19.7505 H         1 UNK         0.0814 
    114 H114      -52.3218  -24.8583   19.9186 H         1 UNK         0.0814 
    115 H115      -51.0938  -26.1108   19.9931 H         1 UNK         0.0814 
    116 H116      -49.9025  -24.8849   16.6637 H         1 UNK         0.3091 
    117 H117      -47.2000  -26.7256   17.4309 H         1 UNK         0.0702 
    118 H118      -47.0650  -27.9831   15.2718 H         1 UNK         0.0785 
    119 H119      -48.8207  -27.9319   15.1258 H         1 UNK         0.0785 
    120 H120      -48.0705  -28.8253   16.4394 H         1 UNK         0.0785 
    121 H121      -48.0025  -25.6022   14.8844 H         1 UNK         0.2998 
    122 H122      -47.5023  -22.2039   15.8332 H         1 UNK         0.0697 
    123 H123      -45.9027  -23.9865   13.9200 H         1 UNK         0.0825 
    124 H124      -45.2186  -23.0181   15.2185 H         1 UNK         0.0825 
    125 H125      -46.0059  -22.2286   13.8614 H         1 UNK         0.0825 
    126 H126      -48.2566  -23.3111   13.3405 H         1 UNK         0.3029 
    127 H127      -51.7979  -23.5662   14.0268 H         1 UNK         0.0897 
    128 H128      -51.8133  -22.2025   11.9653 H         1 UNK         0.0792 
    129 H129      -51.2609  -21.2262   13.3167 H         1 UNK         0.0792 
    130 H130      -50.0983  -21.8397   12.1484 H         1 UNK         0.0792 
    131 H131      -50.3862  -24.3039   11.6976 H         1 UNK         0.3086 
    132 H132      -49.5673  -27.6573   12.7624 H         1 UNK         0.0583 
    133 H133      -51.9687  -27.5956   11.8669 H         1 UNK         0.1020 
    134 H134      -51.3717  -26.7100   10.4833 H         1 UNK         0.1020 
    135 H135      -51.7773  -30.9806   10.9319 H         1 UNK         0.0694 
    136 H136      -52.7841  -29.5859   11.2006 H         1 UNK         0.0694 
    137 H137      -48.9580  -26.2998   10.3397 H         1 UNK         0.2989 
    138 H138      -45.7988  -24.9929   11.4449 H         1 UNK         0.1055 
    139 H139      -45.4363  -27.3093   10.6515 H         1 UNK         0.0806 
    140 H140      -45.2101  -26.1867    9.3206 H         1 UNK         0.0806 
    141 H141      -46.6923  -27.1385    9.4383 H         1 UNK         0.0806 
    142 H142      -47.3487  -24.7141    9.0286 H         1 UNK         0.3061 
    143 H143      -48.9342  -21.6496    9.9268 H         1 UNK         0.0734 
    144 H144      -47.7227  -20.8495    7.9175 H         1 UNK         0.0832 
    145 H145      -46.6148  -20.9908    9.2711 H         1 UNK         0.0832 
    146 H146      -46.6068  -22.2133    8.0082 H         1 UNK         0.0832 
    147 H147      -48.8861  -23.1128    7.4847 H         1 UNK         0.3156 
    148 H148      -51.6889  -25.2174    8.1684 H         1 UNK         0.0589 
    149 H149      -51.2375  -22.8514    6.2676 H         1 UNK         0.0808 
    150 H150      -52.4987  -22.9209    7.4857 H         1 UNK         0.0808 
    151 H151      -52.5081  -24.0692    6.1564 H         1 UNK         0.0808 
    152 H152      -50.1876  -25.0692    5.8240 H         1 UNK         0.3098 
    153 H153      -48.9435  -26.7466    5.1635 H         1 UNK         0.0720 
    154 H154      -46.9389  -25.4267    5.9581 H         1 UNK         0.0791 
    155 H155      -46.4652  -26.9910    5.3171 H         1 UNK         0.0791 
    156 H156      -46.5146  -26.7333    7.0573 H         1 UNK         0.0791 
    157 H157      -48.8827  -28.5984    7.3626 H         1 UNK         0.3028 
@<TRIPOS>BOND
     1    1    2 1    
     2    1   82 1    
     3    1   83 1    
     4    1   84 1    
     5    2    3 2    
     6    2    4 am   BACKBONE|DICT|INTERRES
     7    4    5 1    
     8    4   85 1    
     9    5    6 1    
    10    5   80 1    
    11    5   86 1    
    12    6    7 1    
    13    6   87 1    
    14    6   88 1    
    15    7    8 1    
    16    8    9 1    
    17    8   89 1    
    18    8   90 1    
    19    9   10 ar   
    20    9   14 ar   
    21   10   11 ar   
    22   10   91 1    
    23   11   12 ar   
    24   11   58 1    
    25   12   13 ar   
    26   12   92 1    
    27   13   14 ar   
    28   13   15 1    
    29   14   93 1    
    30   15   16 1    
    31   15   94 1    
    32   15   95 1    
    33   16   17 1    
    34   17   18 1    
    35   17   96 1    
    36   17   97 1    
    37   18   19 1    
    38   18   22 1    
    39   18   98 1    
    40   19   20 am   BACKBONE|DICT|INTERRES
    41   19   21 2    
    42   20   99 1    
    43   20  100 1    
    44   22   23 am   BACKBONE|DICT|INTERRES
    45   22  101 1    
    46   23   24 2    
    47   23   25 1    
    48   25   26 1    
    49   25   27 1    
    50   25  102 1    
    51   26  103 1    
    52   26  104 1    
    53   26  105 1    
    54   27   28 am   BACKBONE|DICT|INTERRES
    55   27  106 1    
    56   28   29 2    
    57   28   30 1    
    58   30   31 1    
    59   30   32 1    
    60   30  107 1    
    61   31  108 1    
    62   31  109 1    
    63   31  110 1    
    64   32   33 am   BACKBONE|DICT|INTERRES
    65   32  111 1    
    66   33   34 2    
    67   33   35 1    
    68   35   36 1    
    69   35   37 1    
    70   35  112 1    
    71   36  113 1    
    72   36  114 1    
    73   36  115 1    
    74   37   38 am   BACKBONE|DICT|INTERRES
    75   37  116 1    
    76   38   39 2    
    77   38   40 1    
    78   40   41 1    
    79   40   42 1    
    80   40  117 1    
    81   41  118 1    
    82   41  119 1    
    83   41  120 1    
    84   42   43 am   BACKBONE|DICT|INTERRES
    85   42  121 1    
    86   43   44 2    
    87   43   45 1    
    88   45   46 1    
    89   45   47 1    
    90   45  122 1    
    91   46  123 1    
    92   46  124 1    
    93   46  125 1    
    94   47   48 am   BACKBONE|DICT|INTERRES
    95   47  126 1    
    96   48   49 2    
    97   48   50 1    
    98   50   51 1    
    99   50   52 1    
   100   50  127 1    
   101   51  128 1    
   102   51  129 1    
   103   51  130 1    
   104   52   53 am   BACKBONE|DICT|INTERRES
   105   52  131 1    
   106   53   54 2    
   107   53   55 1    
   108   55   56 1    
   109   55   59 1    
   110   55  132 1    
   111   56   57 1    
   112   56  133 1    
   113   56  134 1    
   114   57   58 1    
   115   58  135 1    
   116   58  136 1    
   117   59   60 am   BACKBONE|DICT|INTERRES
   118   59  137 1    
   119   60   61 2    
   120   60   62 1    
   121   62   63 1    
   122   62   64 1    
   123   62  138 1    
   124   63  139 1    
   125   63  140 1    
   126   63  141 1    
   127   64   65 am   BACKBONE|DICT|INTERRES
   128   64  142 1    
   129   65   66 2    
   130   65   67 1    
   131   67   68 1    
   132   67   69 1    
   133   67  143 1    
   134   68  144 1    
   135   68  145 1    
   136   68  146 1    
   137   69   70 am   BACKBONE|DICT|INTERRES
   138   69  147 1    
   139   70   71 2    
   140   70   72 1    
   141   72   73 1    
   142   72   74 1    
   143   72  148 1    
   144   73  149 1    
   145   73  150 1    
   146   73  151 1    
   147   74   75 am   BACKBONE|DICT|INTERRES
   148   74  152 1    
   149   75   76 2    
   150   75   77 1    
   151   77   78 1    
   152   77   79 1    
   153   77  153 1    
   154   78  154 1    
   155   78  155 1    
   156   78  156 1    
   157   79   80 am   BACKBONE|DICT|INTERRES
   158   79  157 1    
   159   80   81 2    
@<TRIPOS>SUBSTRUCTURE
     1 UNK         1 GROUP             0       ****    0 ROOT    
