@<TRIPOS>MOLECULE
3R207
157   159    1
SMALL
USER_CHARGES


@<TRIPOS>ATOM
      1 CA        -46.9557  -31.7140    3.8465 C.3       0 UNK        -0.1975 
      2 C         -47.0676  -30.5864    4.8618 C.2       0 UNK         0.4852 
      3 O         -46.0533  -29.9782    5.2078 O.2       0 UNK        -0.5216 
      4 N         -48.2915  -30.3082    5.3347 N.am      1 UNK        -0.4461 
      5 CA        -48.6662  -29.2712    6.3067 C.3       1 UNK         0.0864 
      6 C6        -47.9938  -29.4320    7.6994 C.3       14 UNK        -0.0898 
      7 S7        -48.6543  -30.8522    8.6338 S.3       14 UNK        -0.2598 
      8 C8        -49.4579  -30.0310   10.0516 C.3       14 UNK         0.0286 
      9 C9        -50.8548  -29.5223    9.7168 C.ar      14 UNK        -0.0844 
     10 C10       -51.0230  -28.3640    8.9525 C.ar      14 UNK        -0.0881 
     11 C11       -52.2982  -27.8652    8.6839 C.ar      14 UNK        -0.0643 
     12 C12       -53.4175  -28.5484    9.1621 C.ar      14 UNK        -0.0930 
     13 C13       -53.2689  -29.6958    9.9462 C.ar      14 UNK        -0.0827 
     14 C14       -51.9845  -30.1830   10.2127 C.ar      14 UNK        -0.1249 
     15 C15       -54.4933  -30.4021   10.5137 C.3       14 UNK         0.0141 
     16 S16       -54.9268  -29.7845   12.1750 S.3       14 UNK        -0.2313 
     17 C17       -55.7664  -28.2034   11.7929 C.3       14 UNK        -0.0915 
     18 CA        -57.2949  -28.2091   12.0526 C.3       13 UNK         0.0968 
     19 C         -58.0524  -29.1697   11.0868 C.2       13 UNK         0.5732 
     20 N         -58.7083  -30.2197   11.5671 N.am      13 UNK        -0.7310 
     21 O         -58.0490  -28.9502    9.8778 O.2       13 UNK        -0.5035 
     22 N         -57.6012  -28.3629   13.4838 N.am      13 UNK        -0.4233 
     23 C         -58.7819  -28.0663   14.0443 C.2       13 UNK         0.4989 
     24 O         -59.7424  -27.6139   13.4199 O.2       13 UNK        -0.4996 
     25 CA        -58.9329  -28.3186   15.5547 C.3       12 UNK         0.0216 
     26 CB        -59.5445  -29.7069   15.8064 C.3       12 UNK        -0.1964 
     27 N         -57.6816  -28.1980   16.3082 N.am      12 UNK        -0.4276 
     28 C         -57.0307  -27.0490   16.5368 C.2       12 UNK         0.5020 
     29 O         -57.4177  -25.9526   16.1252 O.2       12 UNK        -0.5489 
     30 CA        -55.7586  -27.1198   17.4074 C.3       11 UNK         0.0294 
     31 CB        -55.2197  -28.5528   17.6332 C.3       11 UNK        -0.2019 
     32 N         -54.6913  -26.2432   16.9112 N.am      11 UNK        -0.4493 
     33 C         -54.0746  -26.3142   15.7220 C.2       11 UNK         0.4932 
     34 O         -54.3629  -27.1329   14.8483 O.2       11 UNK        -0.5029 
     35 CA        -52.9227  -25.3183   15.4586 C.3       10 UNK         0.0280 
     36 CB        -52.6265  -24.3546   16.6303 C.3       10 UNK        -0.1976 
     37 N         -51.6906  -26.0016   15.0476 N.am      10 UNK        -0.4242 
     38 C         -51.0658  -26.9981   15.6973 C.2       10 UNK         0.5072 
     39 O         -51.4269  -27.4642   16.7796 O.2       10 UNK        -0.5224 
     40 CA        -49.8025  -27.5628   15.0312 C.3       9 UNK         0.0343 
     41 CB        -50.1553  -28.3499   13.7556 C.3       9 UNK        -0.2003 
     42 N         -48.8197  -26.5222   14.7251 N.am      9 UNK        -0.4272 
     43 C         -48.1594  -25.7930   15.6373 C.2       9 UNK         0.4988 
     44 O         -48.2716  -25.9468   16.8541 O.2       9 UNK        -0.5108 
     45 CA        -47.2024  -24.7100   15.1081 C.3       8 UNK         0.0248 
     46 CB        -45.8542  -25.3262   14.7022 C.3       8 UNK        -0.2001 
     47 N         -47.7630  -23.9512   13.9872 N.am      8 UNK        -0.4140 
     48 C         -48.8041  -23.1116   14.0911 C.2       8 UNK         0.5028 
     49 O         -49.3567  -22.8321   15.1555 O.2       8 UNK        -0.5428 
     50 CA        -49.3326  -22.4833   12.7898 C.3       7 UNK         0.0264 
     51 CB        -48.5194  -21.2329   12.4188 C.3       7 UNK        -0.1988 
     52 N         -49.3441  -23.4140   11.6592 N.am      7 UNK        -0.4454 
     53 C         -50.0783  -24.5360   11.6008 C.2       7 UNK         0.5027 
     54 O         -50.8506  -24.8987   12.4907 O.2       7 UNK        -0.5083 
     55 CA        -49.8609  -25.4361   10.3676 C.3       6 UNK         0.0844 
     56 C56       -50.5356  -24.8679    9.0909 C.3       14 UNK        -0.0967 
     57 S57       -52.3395  -25.1280    9.0194 S.3       14 UNK        -0.2604 
     58 C58       -52.4703  -26.5686    7.9100 C.3       14 UNK         0.0134 
     59 N         -48.4381  -25.6981   10.1354 N.am      6 UNK        -0.4116 
     60 C         -47.5897  -26.2820   10.9911 C.2       5 UNK         0.5034 
     61 O         -47.9263  -26.7666   12.0676 O.2       5 UNK        -0.5045 
     62 CA        -46.1010  -26.2740   10.6094 C.3       5 UNK         0.0224 
     63 CB        -45.7334  -27.4789    9.7303 C.3       5 UNK        -0.1978 
     64 N         -45.7104  -25.0337    9.9373 N.am      5 UNK        -0.4737 
     65 C         -45.6261  -23.8422   10.5433 C.2       4 UNK         0.5027 
     66 O         -45.8228  -23.6726   11.7461 O.2       4 UNK        -0.5211 
     67 CA        -45.3114  -22.6350    9.6439 C.3       4 UNK         0.0297 
     68 CB        -43.8030  -22.5452    9.3641 C.3       4 UNK        -0.1993 
     69 N         -46.0495  -22.6665    8.3769 N.am      4 UNK        -0.4486 
     70 C         -47.3809  -22.5451    8.2824 C.2       3 UNK         0.4961 
     71 O         -48.1214  -22.3715    9.2504 O.2       3 UNK        -0.5105 
     72 CA        -48.0009  -22.6817    6.8792 C.3       3 UNK         0.0299 
     73 CB        -47.9274  -21.3423    6.1292 C.3       3 UNK        -0.1972 
     74 N         -47.4355  -23.7485    6.0396 N.am      3 UNK        -0.4305 
     75 C         -47.3083  -25.0346    6.3955 C.2       2 UNK         0.5006 
     76 O         -47.5186  -25.4510    7.5352 O.2       2 UNK        -0.5106 
     77 CA        -46.8399  -26.0178    5.3073 C.3       2 UNK         0.0296 
     78 CB        -45.3105  -25.9602    5.1632 C.3       2 UNK        -0.2002 
     79 N         -47.2311  -27.3985    5.6117 N.am      2 UNK        -0.4032 
     80 C         -48.4879  -27.8454    5.7452 C.2       1 UNK         0.5000 
     81 O         -49.4863  -27.1796    5.4638 O.2       1 UNK        -0.5238 
     82 H82       -47.9226  -32.1685    3.6314 H         1 UNK         0.0889 
     83 H83       -46.2921  -32.4919    4.2233 H         1 UNK         0.0889 
     84 H84       -46.5424  -31.3367    2.9116 H         1 UNK         0.0889 
     85 H85       -49.0712  -30.8480    4.9851 H         1 UNK         0.3028 
     86 H86       -49.7414  -29.3903    6.4531 H         1 UNK         0.0864 
     87 H87       -46.9152  -29.5613    7.6085 H         1 UNK         0.0720 
     88 H88       -48.1198  -28.5301    8.2976 H         1 UNK         0.0720 
     89 H89       -48.8389  -29.2101   10.4170 H         1 UNK         0.0814 
     90 H90       -49.5105  -30.7465   10.8736 H         1 UNK         0.0814 
     91 H91       -50.1645  -27.8224    8.5875 H         1 UNK         0.1469 
     92 H92       -54.4038  -28.1679    8.9393 H         1 UNK         0.1381 
     93 H93       -51.8661  -31.0690   10.8215 H         1 UNK         0.1206 
     94 H94       -54.2991  -31.4736   10.5799 H         1 UNK         0.0813 
     95 H95       -55.3466  -30.2917    9.8426 H         1 UNK         0.0813 
     96 H96       -55.5757  -27.9143   10.7620 H         1 UNK         0.0638 
     97 H97       -55.2965  -27.4239   12.3932 H         1 UNK         0.0638 
     98 H98       -57.6484  -27.2126   11.7809 H         1 UNK         0.0568 
     99 H99       -58.7109  -30.4119   12.5551 H         1 UNK         0.3450 
    100 H100      -59.1974  -30.8291   10.9311 H         1 UNK         0.3450 
    101 H101      -56.8532  -28.7189   14.0605 H         1 UNK         0.2987 
    102 H102      -59.6275  -27.5685   15.9394 H         1 UNK         0.0766 
    103 H103      -59.7515  -29.8636   16.8653 H         1 UNK         0.0798 
    104 H104      -58.8854  -30.5084   15.4703 H         1 UNK         0.0798 
    105 H105      -60.4909  -29.8189   15.2750 H         1 UNK         0.0798 
    106 H106      -57.2950  -29.0488   16.6910 H         1 UNK         0.3198 
    107 H107      -56.0453  -26.7222   18.3821 H         1 UNK         0.0843 
    108 H108      -54.3067  -28.5353   18.2288 H         1 UNK         0.0831 
    109 H109      -54.9842  -29.0557   16.6942 H         1 UNK         0.0831 
    110 H110      -55.9357  -29.1704   18.1766 H         1 UNK         0.0831 
    111 H111      -54.3975  -25.5134   17.5446 H         1 UNK         0.3133 
    112 H112      -53.2324  -24.7148   14.6043 H         1 UNK         0.0566 
    113 H113      -51.8293  -23.6590   16.3664 H         1 UNK         0.0814 
    114 H114      -53.4997  -23.7515   16.8821 H         1 UNK         0.0814 
    115 H115      -52.3095  -24.8854   17.5291 H         1 UNK         0.0814 
    116 H116      -51.3134  -25.7051   14.1494 H         1 UNK         0.3091 
    117 H117      -49.3392  -28.2577   15.7347 H         1 UNK         0.0702 
    118 H118      -49.2797  -28.8558   13.3486 H         1 UNK         0.0785 
    119 H119      -50.5568  -27.7029   12.9745 H         1 UNK         0.0785 
    120 H120      -50.9053  -29.1148   13.9613 H         1 UNK         0.0785 
    121 H121      -48.6056  -26.3836   13.7400 H         1 UNK         0.2998 
    122 H122      -47.0165  -24.0064   15.9224 H         1 UNK         0.0697 
    123 H123      -45.9673  -26.0505   13.8959 H         1 UNK         0.0825 
    124 H124      -45.3951  -25.8462   15.5440 H         1 UNK         0.0825 
    125 H125      -45.1513  -24.5618   14.3703 H         1 UNK         0.0825 
    126 H126      -47.3095  -24.0584   13.0852 H         1 UNK         0.3029 
    127 H127      -50.3650  -22.1767   12.9716 H         1 UNK         0.0897 
    128 H128      -48.9408  -20.7307   11.5477 H         1 UNK         0.0792 
    129 H129      -48.5138  -20.5127   13.2380 H         1 UNK         0.0792 
    130 H130      -47.4815  -21.4789   12.1915 H         1 UNK         0.0792 
    131 H131      -48.7634  -23.1654   10.8609 H         1 UNK         0.3086 
    132 H132      -50.3133  -26.3987   10.6066 H         1 UNK         0.0583 
    133 H133      -50.3434  -23.7991    8.9880 H         1 UNK         0.1020 
    134 H134      -50.0955  -25.3192    8.2008 H         1 UNK         0.1020 
    135 H135      -53.4502  -26.5495    7.4307 H         1 UNK         0.0694 
    136 H136      -51.7403  -26.5027    7.1017 H         1 UNK         0.0694 
    137 H137      -48.0618  -25.3957    9.2385 H         1 UNK         0.2989 
    138 H138      -45.5310  -26.3522   11.5375 H         1 UNK         0.1055 
    139 H139      -46.1125  -28.4096   10.1553 H         1 UNK         0.0806 
    140 H140      -44.6519  -27.5822    9.6413 H         1 UNK         0.0806 
    141 H141      -46.1371  -27.3841    8.7233 H         1 UNK         0.0806 
    142 H142      -45.6111  -25.0719    8.9326 H         1 UNK         0.3061 
    143 H143      -45.6108  -21.7346   10.1851 H         1 UNK         0.0734 
    144 H144      -43.5568  -21.6457    8.7997 H         1 UNK         0.0832 
    145 H145      -43.2369  -22.5054   10.2959 H         1 UNK         0.0832 
    146 H146      -43.4412  -23.4061    8.8004 H         1 UNK         0.0832 
    147 H147      -45.5175  -22.8132    7.5314 H         1 UNK         0.3156 
    148 H148      -49.0557  -22.9245    7.0207 H         1 UNK         0.0589 
    149 H149      -46.8986  -21.0630    5.8983 H         1 UNK         0.0808 
    150 H150      -48.4842  -21.3793    5.1927 H         1 UNK         0.0808 
    151 H151      -48.3576  -20.5363    6.7258 H         1 UNK         0.0808 
    152 H152      -47.2138  -23.4939    5.0876 H         1 UNK         0.3098 
    153 H153      -47.3034  -25.7368    4.3596 H         1 UNK         0.0720 
    154 H154      -44.9611  -26.6341    4.3803 H         1 UNK         0.0791 
    155 H155      -44.8080  -26.2376    6.0911 H         1 UNK         0.0791 
    156 H156      -44.9750  -24.9571    4.8969 H         1 UNK         0.0791 
    157 H157      -46.4857  -28.0647    5.7818 H         1 UNK         0.3028 
@<TRIPOS>BOND
     1    1    2 1    
     2    1   82 1    
     3    1   83 1    
     4    1   84 1    
     5    2    3 2    
     6    2    4 am   BACKBONE|DICT|INTERRES
     7    4    5 1    
     8    4   85 1    
     9    5    6 1    
    10    5   80 1    
    11    5   86 1    
    12    6    7 1    
    13    6   87 1    
    14    6   88 1    
    15    7    8 1    
    16    8    9 1    
    17    8   89 1    
    18    8   90 1    
    19    9   10 ar   
    20    9   14 ar   
    21   10   11 ar   
    22   10   91 1    
    23   11   12 ar   
    24   11   58 1    
    25   12   13 ar   
    26   12   92 1    
    27   13   14 ar   
    28   13   15 1    
    29   14   93 1    
    30   15   16 1    
    31   15   94 1    
    32   15   95 1    
    33   16   17 1    
    34   17   18 1    
    35   17   96 1    
    36   17   97 1    
    37   18   19 1    
    38   18   22 1    
    39   18   98 1    
    40   19   20 am   BACKBONE|DICT|INTERRES
    41   19   21 2    
    42   20   99 1    
    43   20  100 1    
    44   22   23 am   BACKBONE|DICT|INTERRES
    45   22  101 1    
    46   23   24 2    
    47   23   25 1    
    48   25   26 1    
    49   25   27 1    
    50   25  102 1    
    51   26  103 1    
    52   26  104 1    
    53   26  105 1    
    54   27   28 am   BACKBONE|DICT|INTERRES
    55   27  106 1    
    56   28   29 2    
    57   28   30 1    
    58   30   31 1    
    59   30   32 1    
    60   30  107 1    
    61   31  108 1    
    62   31  109 1    
    63   31  110 1    
    64   32   33 am   BACKBONE|DICT|INTERRES
    65   32  111 1    
    66   33   34 2    
    67   33   35 1    
    68   35   36 1    
    69   35   37 1    
    70   35  112 1    
    71   36  113 1    
    72   36  114 1    
    73   36  115 1    
    74   37   38 am   BACKBONE|DICT|INTERRES
    75   37  116 1    
    76   38   39 2    
    77   38   40 1    
    78   40   41 1    
    79   40   42 1    
    80   40  117 1    
    81   41  118 1    
    82   41  119 1    
    83   41  120 1    
    84   42   43 am   BACKBONE|DICT|INTERRES
    85   42  121 1    
    86   43   44 2    
    87   43   45 1    
    88   45   46 1    
    89   45   47 1    
    90   45  122 1    
    91   46  123 1    
    92   46  124 1    
    93   46  125 1    
    94   47   48 am   BACKBONE|DICT|INTERRES
    95   47  126 1    
    96   48   49 2    
    97   48   50 1    
    98   50   51 1    
    99   50   52 1    
   100   50  127 1    
   101   51  128 1    
   102   51  129 1    
   103   51  130 1    
   104   52   53 am   BACKBONE|DICT|INTERRES
   105   52  131 1    
   106   53   54 2    
   107   53   55 1    
   108   55   56 1    
   109   55   59 1    
   110   55  132 1    
   111   56   57 1    
   112   56  133 1    
   113   56  134 1    
   114   57   58 1    
   115   58  135 1    
   116   58  136 1    
   117   59   60 am   BACKBONE|DICT|INTERRES
   118   59  137 1    
   119   60   61 2    
   120   60   62 1    
   121   62   63 1    
   122   62   64 1    
   123   62  138 1    
   124   63  139 1    
   125   63  140 1    
   126   63  141 1    
   127   64   65 am   BACKBONE|DICT|INTERRES
   128   64  142 1    
   129   65   66 2    
   130   65   67 1    
   131   67   68 1    
   132   67   69 1    
   133   67  143 1    
   134   68  144 1    
   135   68  145 1    
   136   68  146 1    
   137   69   70 am   BACKBONE|DICT|INTERRES
   138   69  147 1    
   139   70   71 2    
   140   70   72 1    
   141   72   73 1    
   142   72   74 1    
   143   72  148 1    
   144   73  149 1    
   145   73  150 1    
   146   73  151 1    
   147   74   75 am   BACKBONE|DICT|INTERRES
   148   74  152 1    
   149   75   76 2    
   150   75   77 1    
   151   77   78 1    
   152   77   79 1    
   153   77  153 1    
   154   78  154 1    
   155   78  155 1    
   156   78  156 1    
   157   79   80 am   BACKBONE|DICT|INTERRES
   158   79  157 1    
   159   80   81 2    
@<TRIPOS>SUBSTRUCTURE
     1 UNK         1 GROUP             0       ****    0 ROOT    
