@<TRIPOS>MOLECULE
3R207
157   159    1
SMALL
USER_CHARGES


@<TRIPOS>ATOM
      1 CA        -44.8312  -31.6438    8.8405 C.3       0 UNK        -0.1975 
      2 C         -45.6857  -30.5886    8.1549 C.2       0 UNK         0.4852 
      3 O         -45.7476  -29.4554    8.6298 O.2       0 UNK        -0.5216 
      4 N         -46.3291  -30.9512    7.0362 N.am      1 UNK        -0.4461 
      5 CA        -47.2452  -30.1551    6.1997 C.3       1 UNK         0.0864 
      6 C6        -48.4921  -29.6004    6.9386 C.3       14 UNK        -0.0898 
      7 S7        -49.4211  -30.8082    7.9423 S.3       14 UNK        -0.2598 
      8 C8        -49.9852  -29.7505    9.3226 C.3       14 UNK         0.0286 
      9 C9        -51.2256  -28.9311    8.9733 C.ar      14 UNK        -0.0844 
     10 C10       -51.1668  -27.9150    8.0130 C.ar      14 UNK        -0.0881 
     11 C11       -52.2972  -27.1544    7.7006 C.ar      14 UNK        -0.0643 
     12 C12       -53.4958  -27.4023    8.3726 C.ar      14 UNK        -0.0930 
     13 C13       -53.5650  -28.3952    9.3532 C.ar      14 UNK        -0.0827 
     14 C14       -52.4326  -29.1637    9.6415 C.ar      14 UNK        -0.1249 
     15 C15       -54.8656  -28.6217   10.1042 C.3       14 UNK         0.0141 
     16 S16       -55.1098  -27.3393   11.3689 S.3       14 UNK        -0.2313 
     17 C17       -56.7563  -27.8124   11.9820 C.3       14 UNK        -0.0915 
     18 CA        -57.3482  -26.7867   12.9826 C.3       13 UNK         0.0968 
     19 C         -58.8090  -27.1841   13.3498 C.2       13 UNK         0.5732 
     20 N         -59.0796  -27.7131   14.5386 N.am      13 UNK        -0.7310 
     21 O         -59.7132  -27.0059   12.5371 O.2       13 UNK        -0.5035 
     22 N         -56.4691  -26.5996   14.1452 N.am      13 UNK        -0.4233 
     23 C         -56.6089  -25.6426   15.0711 C.2       13 UNK         0.4989 
     24 O         -57.3748  -24.6856   14.9467 O.2       13 UNK        -0.4996 
     25 CA        -55.7627  -25.7768   16.3568 C.3       12 UNK         0.0216 
     26 CB        -56.5415  -25.3157   17.6065 C.3       12 UNK        -0.1964 
     27 N         -55.1912  -27.1145   16.5830 N.am      12 UNK        -0.4276 
     28 C         -55.8330  -28.2890   16.6845 C.2       12 UNK         0.5020 
     29 O         -57.0552  -28.4063   16.5711 O.2       12 UNK        -0.5489 
     30 CA        -54.9527  -29.5435   16.8827 C.3       11 UNK         0.0294 
     31 CB        -55.7701  -30.8486   16.8409 C.3       11 UNK        -0.2019 
     32 N         -53.8648  -29.6343   15.8984 N.am      11 UNK        -0.4493 
     33 C         -52.7435  -28.9036   15.9235 C.2       11 UNK         0.4932 
     34 O         -52.5061  -28.0721   16.8041 O.2       11 UNK        -0.5029 
     35 CA        -51.7466  -29.1068   14.7733 C.3       10 UNK         0.0280 
     36 CB        -52.3780  -28.8240   13.3969 C.3       10 UNK        -0.1976 
     37 N         -50.6278  -28.1964   14.9849 N.am      10 UNK        -0.4242 
     38 C         -49.3579  -28.3935   14.6196 C.2       10 UNK         0.5072 
     39 O         -48.9662  -29.3840   13.9995 O.2       10 UNK        -0.5224 
     40 CA        -48.3726  -27.2856   15.0242 C.3       9 UNK         0.0343 
     41 CB        -46.9987  -27.4109   14.3410 C.3       9 UNK        -0.2003 
     42 N         -48.9557  -25.9805   14.7132 N.am      9 UNK        -0.4272 
     43 C         -49.0795  -24.9639   15.5749 C.2       9 UNK         0.4988 
     44 O         -48.6641  -24.9919   16.7341 O.2       9 UNK        -0.5108 
     45 CA        -49.7877  -23.6949   15.0696 C.3       8 UNK         0.0248 
     46 CB        -48.7740  -22.7478   14.4074 C.3       8 UNK        -0.2001 
     47 N         -50.8872  -23.9451   14.1349 N.am      8 UNK        -0.4140 
     48 C         -52.0164  -24.6164   14.3939 C.2       8 UNK         0.5028 
     49 O         -52.2597  -25.1495   15.4753 O.2       8 UNK        -0.5428 
     50 CA        -53.0583  -24.7253   13.2621 C.3       7 UNK         0.0264 
     51 CB        -54.0095  -23.5136   13.2575 C.3       7 UNK        -0.1988 
     52 N         -52.4935  -24.9785   11.9272 N.am      7 UNK        -0.4454 
     53 C         -51.7028  -24.1907   11.1832 C.2       7 UNK         0.5027 
     54 O         -51.3697  -23.0455   11.4958 O.2       7 UNK        -0.5083 
     55 CA        -51.1270  -24.8215    9.9034 C.3       6 UNK         0.0844 
     56 C56       -51.6433  -24.0927    8.6369 C.3       14 UNK        -0.0967 
     57 S57       -50.9719  -24.7868    7.0863 S.3       14 UNK        -0.2604 
     58 C58       -52.2152  -26.0474    6.6586 C.3       14 UNK         0.0134 
     59 N         -49.6641  -24.8996    9.9546 N.am      6 UNK        -0.4116 
     60 C         -48.9474  -25.5290   10.8972 C.2       5 UNK         0.5034 
     61 O         -49.4389  -26.0743   11.8867 O.2       5 UNK        -0.5045 
     62 CA        -47.4242  -25.5898   10.7100 C.3       5 UNK         0.0224 
     63 CB        -47.0029  -27.0019   10.2771 C.3       5 UNK        -0.1978 
     64 N         -46.9134  -24.6203    9.7366 N.am      5 UNK        -0.4737 
     65 C         -46.6264  -23.3444   10.0337 C.2       4 UNK         0.5027 
     66 O         -46.8039  -22.8541   11.1485 O.2       4 UNK        -0.5211 
     67 CA        -46.0142  -22.4647    8.9266 C.3       4 UNK         0.0297 
     68 CB        -44.5030  -22.2973    9.1556 C.3       4 UNK        -0.1993 
     69 N         -46.2331  -22.9838    7.5755 N.am      4 UNK        -0.4486 
     70 C         -47.3989  -22.9309    6.9181 C.2       3 UNK         0.4961 
     71 O         -48.4051  -22.3791    7.3625 O.2       3 UNK        -0.5105 
     72 CA        -47.4566  -23.6196    5.5393 C.3       3 UNK         0.0299 
     73 CB        -47.2774  -22.5846    4.4170 C.3       3 UNK        -0.1972 
     74 N         -46.4826  -24.7065    5.3569 N.am      3 UNK        -0.4305 
     75 C         -46.4463  -25.8274    6.0901 C.2       2 UNK         0.5006 
     76 O         -47.1978  -26.0392    7.0443 O.2       2 UNK        -0.5106 
     77 CA        -45.3497  -26.8480    5.7430 C.3       2 UNK         0.0296 
     78 CB        -44.0471  -26.5000    6.4821 C.3       2 UNK        -0.2002 
     79 N         -45.7792  -28.1826    6.1531 N.am      2 UNK        -0.4032 
     80 C         -46.5686  -28.9924    5.4391 C.2       1 UNK         0.5000 
     81 O         -46.8122  -28.8279    4.2419 O.2       1 UNK        -0.5238 
     82 H82       -44.8598  -32.5983    8.3153 H         1 UNK         0.0889 
     83 H83       -45.1849  -31.8060    9.8583 H         1 UNK         0.0889 
     84 H84       -43.7942  -31.3128    8.8885 H         1 UNK         0.0889 
     85 H85       -46.1973  -31.8972    6.7059 H         1 UNK         0.3028 
     86 H86       -47.6057  -30.8495    5.4390 H         1 UNK         0.0864 
     87 H87       -48.1975  -28.7702    7.5823 H         1 UNK         0.0720 
     88 H88       -49.1885  -29.1874    6.2064 H         1 UNK         0.0720 
     89 H89       -49.1830  -29.0853    9.6441 H         1 UNK         0.0814 
     90 H90       -50.1914  -30.3956   10.1779 H         1 UNK         0.0814 
     91 H91       -50.2370  -27.6854    7.5164 H         1 UNK         0.1469 
     92 H92       -54.3725  -26.8090    8.1510 H         1 UNK         0.1381 
     93 H93       -52.4887  -29.9341   10.3982 H         1 UNK         0.1206 
     94 H94       -54.8716  -29.6044   10.5784 H         1 UNK         0.0813 
     95 H95       -55.7006  -28.6091    9.4019 H         1 UNK         0.0813 
     96 H96       -57.4152  -27.9212   11.1182 H         1 UNK         0.0638 
     97 H97       -56.6834  -28.7995   12.4427 H         1 UNK         0.0638 
     98 H98       -57.4127  -25.8239   12.4722 H         1 UNK         0.0568 
     99 H99       -58.3430  -27.8853   15.2176 H         1 UNK         0.3450 
    100 H100      -60.0300  -27.9618   14.7601 H         1 UNK         0.3450 
    101 H101      -55.8228  -27.3499   14.3308 H         1 UNK         0.2987 
    102 H102      -54.9142  -25.1037   16.2284 H         1 UNK         0.0766 
    103 H103      -57.4385  -25.9153   17.7660 H         1 UNK         0.0798 
    104 H104      -55.9274  -25.3855   18.5043 H         1 UNK         0.0798 
    105 H105      -56.8572  -24.2758   17.5141 H         1 UNK         0.0798 
    106 H106      -54.1770  -27.1480   16.6742 H         1 UNK         0.3198 
    107 H107      -54.5133  -29.4634   17.8796 H         1 UNK         0.0843 
    108 H108      -56.5555  -30.8425   17.5981 H         1 UNK         0.0831 
    109 H109      -55.1427  -31.7180   17.0377 H         1 UNK         0.0831 
    110 H110      -56.2527  -30.9927   15.8734 H         1 UNK         0.0831 
    111 H111      -54.0011  -30.2861   15.1388 H         1 UNK         0.3133 
    112 H112      -51.3926  -30.1389   14.8131 H         1 UNK         0.0566 
    113 H113      -51.6390  -28.9056   12.5994 H         1 UNK         0.0814 
    114 H114      -53.1773  -29.5283   13.1653 H         1 UNK         0.0814 
    115 H115      -52.7999  -27.8210   13.3512 H         1 UNK         0.0814 
    116 H116      -50.8596  -27.3856   15.5490 H         1 UNK         0.3091 
    117 H117      -48.2242  -27.3905   16.1008 H         1 UNK         0.0702 
    118 H118      -46.3245  -26.6153   14.6583 H         1 UNK         0.0785 
    119 H119      -47.0873  -27.3632   13.2572 H         1 UNK         0.0785 
    120 H120      -46.5217  -28.3597   14.5898 H         1 UNK         0.0785 
    121 H121      -49.3234  -25.8846   13.7683 H         1 UNK         0.2998 
    122 H122      -50.2112  -23.1894   15.9397 H         1 UNK         0.0697 
    123 H123      -48.3448  -23.1850   13.5045 H         1 UNK         0.0825 
    124 H124      -47.9489  -22.5210   15.0841 H         1 UNK         0.0825 
    125 H125      -49.2361  -21.7997   14.1321 H         1 UNK         0.0825 
    126 H126      -50.8094  -23.5285   13.2106 H         1 UNK         0.3029 
    127 H127      -53.6644  -25.6016   13.4938 H         1 UNK         0.0897 
    128 H128      -54.8111  -23.6455   12.5305 H         1 UNK         0.0792 
    129 H129      -54.4781  -23.3828   14.2337 H         1 UNK         0.0792 
    130 H130      -53.4912  -22.5838   13.0229 H         1 UNK         0.0792 
    131 H131      -52.6721  -25.9089   11.5723 H         1 UNK         0.3086 
    132 H132      -51.4780  -25.8520    9.8707 H         1 UNK         0.0583 
    133 H133      -52.7340  -24.1186    8.5958 H         1 UNK         0.1020 
    134 H134      -51.3670  -23.0366    8.6701 H         1 UNK         0.1020 
    135 H135      -53.1828  -25.5623    6.5211 H         1 UNK         0.0694 
    136 H136      -51.9515  -26.4882    5.6963 H         1 UNK         0.0694 
    137 H137      -49.1727  -24.4760    9.1807 H         1 UNK         0.2989 
    138 H138      -46.9735  -25.3868   11.6842 H         1 UNK         0.1055 
    139 H139      -45.9188  -27.0916   10.2072 H         1 UNK         0.0806 
    140 H140      -47.4227  -27.2678    9.3079 H         1 UNK         0.0806 
    141 H141      -47.3450  -27.7564   10.9858 H         1 UNK         0.0806 
    142 H142      -46.7931  -24.9540    8.7856 H         1 UNK         0.3061 
    143 H143      -46.4808  -21.4797    8.9977 H         1 UNK         0.0734 
    144 H144      -44.3023  -21.8795   10.1433 H         1 UNK         0.0832 
    145 H145      -43.9761  -23.2504    9.0931 H         1 UNK         0.0832 
    146 H146      -44.0622  -21.6191    8.4247 H         1 UNK         0.0832 
    147 H147      -45.4551  -23.4477    7.1306 H         1 UNK         0.3156 
    148 H148      -48.4524  -24.0564    5.4408 H         1 UNK         0.0589 
    149 H149      -46.2865  -22.1293    4.4411 H         1 UNK         0.0808 
    150 H150      -47.4188  -23.0345    3.4341 H         1 UNK         0.0808 
    151 H151      -48.0079  -21.7794    4.5092 H         1 UNK         0.0808 
    152 H152      -45.8200  -24.5974    4.6019 H         1 UNK         0.3098 
    153 H153      -45.1680  -26.8340    4.6662 H         1 UNK         0.0720 
    154 H154      -43.2626  -27.2239    6.2606 H         1 UNK         0.0791 
    155 H155      -44.1891  -26.4834    7.5640 H         1 UNK         0.0791 
    156 H156      -43.6742  -25.5191    6.1847 H         1 UNK         0.0791 
    157 H157      -45.6902  -28.4042    7.1436 H         1 UNK         0.3028 
@<TRIPOS>BOND
     1    1    2 1    
     2    1   82 1    
     3    1   83 1    
     4    1   84 1    
     5    2    3 2    
     6    2    4 am   BACKBONE|DICT|INTERRES
     7    4    5 1    
     8    4   85 1    
     9    5    6 1    
    10    5   80 1    
    11    5   86 1    
    12    6    7 1    
    13    6   87 1    
    14    6   88 1    
    15    7    8 1    
    16    8    9 1    
    17    8   89 1    
    18    8   90 1    
    19    9   10 ar   
    20    9   14 ar   
    21   10   11 ar   
    22   10   91 1    
    23   11   12 ar   
    24   11   58 1    
    25   12   13 ar   
    26   12   92 1    
    27   13   14 ar   
    28   13   15 1    
    29   14   93 1    
    30   15   16 1    
    31   15   94 1    
    32   15   95 1    
    33   16   17 1    
    34   17   18 1    
    35   17   96 1    
    36   17   97 1    
    37   18   19 1    
    38   18   22 1    
    39   18   98 1    
    40   19   20 am   BACKBONE|DICT|INTERRES
    41   19   21 2    
    42   20   99 1    
    43   20  100 1    
    44   22   23 am   BACKBONE|DICT|INTERRES
    45   22  101 1    
    46   23   24 2    
    47   23   25 1    
    48   25   26 1    
    49   25   27 1    
    50   25  102 1    
    51   26  103 1    
    52   26  104 1    
    53   26  105 1    
    54   27   28 am   BACKBONE|DICT|INTERRES
    55   27  106 1    
    56   28   29 2    
    57   28   30 1    
    58   30   31 1    
    59   30   32 1    
    60   30  107 1    
    61   31  108 1    
    62   31  109 1    
    63   31  110 1    
    64   32   33 am   BACKBONE|DICT|INTERRES
    65   32  111 1    
    66   33   34 2    
    67   33   35 1    
    68   35   36 1    
    69   35   37 1    
    70   35  112 1    
    71   36  113 1    
    72   36  114 1    
    73   36  115 1    
    74   37   38 am   BACKBONE|DICT|INTERRES
    75   37  116 1    
    76   38   39 2    
    77   38   40 1    
    78   40   41 1    
    79   40   42 1    
    80   40  117 1    
    81   41  118 1    
    82   41  119 1    
    83   41  120 1    
    84   42   43 am   BACKBONE|DICT|INTERRES
    85   42  121 1    
    86   43   44 2    
    87   43   45 1    
    88   45   46 1    
    89   45   47 1    
    90   45  122 1    
    91   46  123 1    
    92   46  124 1    
    93   46  125 1    
    94   47   48 am   BACKBONE|DICT|INTERRES
    95   47  126 1    
    96   48   49 2    
    97   48   50 1    
    98   50   51 1    
    99   50   52 1    
   100   50  127 1    
   101   51  128 1    
   102   51  129 1    
   103   51  130 1    
   104   52   53 am   BACKBONE|DICT|INTERRES
   105   52  131 1    
   106   53   54 2    
   107   53   55 1    
   108   55   56 1    
   109   55   59 1    
   110   55  132 1    
   111   56   57 1    
   112   56  133 1    
   113   56  134 1    
   114   57   58 1    
   115   58  135 1    
   116   58  136 1    
   117   59   60 am   BACKBONE|DICT|INTERRES
   118   59  137 1    
   119   60   61 2    
   120   60   62 1    
   121   62   63 1    
   122   62   64 1    
   123   62  138 1    
   124   63  139 1    
   125   63  140 1    
   126   63  141 1    
   127   64   65 am   BACKBONE|DICT|INTERRES
   128   64  142 1    
   129   65   66 2    
   130   65   67 1    
   131   67   68 1    
   132   67   69 1    
   133   67  143 1    
   134   68  144 1    
   135   68  145 1    
   136   68  146 1    
   137   69   70 am   BACKBONE|DICT|INTERRES
   138   69  147 1    
   139   70   71 2    
   140   70   72 1    
   141   72   73 1    
   142   72   74 1    
   143   72  148 1    
   144   73  149 1    
   145   73  150 1    
   146   73  151 1    
   147   74   75 am   BACKBONE|DICT|INTERRES
   148   74  152 1    
   149   75   76 2    
   150   75   77 1    
   151   77   78 1    
   152   77   79 1    
   153   77  153 1    
   154   78  154 1    
   155   78  155 1    
   156   78  156 1    
   157   79   80 am   BACKBONE|DICT|INTERRES
   158   79  157 1    
   159   80   81 2    
@<TRIPOS>SUBSTRUCTURE
     1 UNK         1 GROUP             0       ****    0 ROOT    
