@<TRIPOS>MOLECULE
3R207
157   159    1
SMALL
USER_CHARGES


@<TRIPOS>ATOM
      1 CA        -51.4464  -30.5365    2.8331 C.3       0 UNK        -0.1975 
      2 C         -50.1624  -29.8766    3.3135 C.2       0 UNK         0.4852 
      3 O         -49.0732  -30.3326    2.9639 O.2       0 UNK        -0.5216 
      4 N         -50.2855  -28.8046    4.1086 N.am      1 UNK        -0.4461 
      5 CA        -49.1700  -28.0279    4.6694 C.3       1 UNK         0.0864 
      6 C6        -49.6319  -26.7128    5.3521 C.3       14 UNK        -0.0898 
      7 S7        -50.8682  -25.7457    4.4188 S.3       14 UNK        -0.2598 
      8 C8        -52.4414  -26.2941    5.1700 C.3       14 UNK         0.0286 
      9 C9        -52.6066  -25.8193    6.6072 C.ar      14 UNK        -0.0844 
     10 C10       -53.0883  -24.5336    6.8684 C.ar      14 UNK        -0.0881 
     11 C11       -53.2512  -24.0868    8.1833 C.ar      14 UNK        -0.0643 
     12 C12       -52.9532  -24.9532    9.2408 C.ar      14 UNK        -0.0930 
     13 C13       -52.4224  -26.2222    8.9948 C.ar      14 UNK        -0.0827 
     14 C14       -52.2761  -26.6591    7.6761 C.ar      14 UNK        -0.1249 
     15 C15       -51.8886  -27.0613   10.1484 C.3       14 UNK         0.0141 
     16 S16       -52.6626  -28.6955   10.2891 S.3       14 UNK        -0.2313 
     17 C17       -51.5091  -29.4564   11.4830 C.3       14 UNK        -0.0915 
     18 CA        -52.2294  -30.3284   12.5418 C.3       13 UNK         0.0968 
     19 C         -51.2231  -31.1746   13.3777 C.2       13 UNK         0.5732 
     20 N         -51.2982  -31.2080   14.7034 N.am      13 UNK        -0.7310 
     21 O         -50.3590  -31.8370   12.8088 O.2       13 UNK        -0.5035 
     22 N         -53.1595  -29.5343   13.3607 N.am      13 UNK        -0.4233 
     23 C         -54.3265  -29.9949   13.8286 C.2       13 UNK         0.4989 
     24 O         -54.7846  -31.1057   13.5516 O.2       13 UNK        -0.4996 
     25 CA        -55.1003  -29.0630   14.7822 C.3       12 UNK         0.0216 
     26 CB        -56.2555  -29.7761   15.5167 C.3       12 UNK        -0.1964 
     27 N         -54.2338  -28.3727   15.7452 N.am      12 UNK        -0.4276 
     28 C         -53.3781  -28.9275   16.6203 C.2       12 UNK         0.5020 
     29 O         -53.2048  -30.1424   16.7237 O.2       12 UNK        -0.5489 
     30 CA        -52.5394  -27.9873   17.5079 C.3       11 UNK         0.0294 
     31 CB        -51.0355  -28.2210   17.2766 C.3       11 UNK        -0.2019 
     32 N         -52.8384  -26.5743   17.2722 N.am      11 UNK        -0.4493 
     33 C         -53.8064  -25.8764   17.8816 C.2       11 UNK         0.4932 
     34 O         -54.5072  -26.3232   18.7893 O.2       11 UNK        -0.5029 
     35 CA        -54.0534  -24.4438   17.3711 C.3       10 UNK         0.0280 
     36 CB        -53.3138  -23.4253   18.2533 C.3       10 UNK        -0.1976 
     37 N         -53.6595  -24.2469   15.9711 N.am      10 UNK        -0.4242 
     38 C         -54.2376  -24.8446   14.9177 C.2       10 UNK         0.5072 
     39 O         -55.1959  -25.6112   15.0060 O.2       10 UNK        -0.5224 
     40 CA        -53.5846  -24.6032   13.5466 C.3       9 UNK         0.0343 
     41 CB        -54.0661  -23.2688   12.9553 C.3       9 UNK        -0.2003 
     42 N         -52.1185  -24.6293   13.6182 N.am      9 UNK        -0.4272 
     43 C         -51.3997  -25.7138   13.9555 C.2       9 UNK         0.4988 
     44 O         -51.9101  -26.8178   14.1597 O.2       9 UNK        -0.5108 
     45 CA        -49.8767  -25.5507   14.1253 C.3       8 UNK         0.0248 
     46 CB        -49.1166  -26.7352   13.5044 C.3       8 UNK        -0.2001 
     47 N         -49.3856  -24.3073   13.5281 N.am      8 UNK        -0.4140 
     48 C         -49.0217  -23.2002   14.1929 C.2       8 UNK         0.5028 
     49 O         -49.0148  -23.1149   15.4209 O.2       8 UNK        -0.5428 
     50 CA        -48.6258  -21.9635   13.3559 C.3       7 UNK         0.0264 
     51 CB        -47.0984  -21.8172   13.2844 C.3       7 UNK        -0.1988 
     52 N         -49.1803  -21.9872   11.9973 N.am      7 UNK        -0.4454 
     53 C         -50.4867  -21.8353   11.7302 C.2       7 UNK         0.5027 
     54 O         -51.3057  -21.4989   12.5856 O.2       7 UNK        -0.5083 
     55 CA        -51.0040  -22.2059   10.3223 C.3       6 UNK         0.0844 
     56 C56       -51.6613  -21.0079    9.5993 C.3       14 UNK        -0.0967 
     57 S57       -52.4378  -21.4352    7.9982 S.3       14 UNK        -0.2604 
     58 C58       -53.7213  -22.6597    8.4442 C.3       14 UNK         0.0134 
     59 N         -50.0503  -22.9417    9.4810 N.am      6 UNK        -0.4116 
     60 C         -49.6024  -24.1737    9.7569 C.2       5 UNK         0.5034 
     61 O         -49.8730  -24.7613   10.8049 O.2       5 UNK        -0.5045 
     62 CA        -48.6940  -24.8776    8.7330 C.3       5 UNK         0.0224 
     63 CB        -48.2130  -23.9739    7.5753 C.3       5 UNK        -0.1978 
     64 N         -47.5638  -25.5274    9.4082 N.am      5 UNK        -0.4737 
     65 C         -46.6349  -24.9216   10.1663 C.2       4 UNK         0.5027 
     66 O         -46.5638  -23.6987   10.3002 O.2       4 UNK        -0.5211 
     67 CA        -45.6416  -25.8178   10.9311 C.3       4 UNK         0.0297 
     68 CB        -45.3046  -25.2396   12.3183 C.3       4 UNK        -0.1993 
     69 N         -46.1614  -27.1750   11.1080 N.am      4 UNK        -0.4486 
     70 C         -45.7560  -28.2571   10.4352 C.2       3 UNK         0.4961 
     71 O         -44.8579  -28.2465    9.5920 O.2       3 UNK        -0.5105 
     72 CA        -46.4738  -29.5864   10.7441 C.3       3 UNK         0.0299 
     73 CB        -47.5151  -29.5099   11.8855 C.3       3 UNK        -0.1972 
     74 N         -47.0845  -30.1604    9.5420 N.am      3 UNK        -0.4305 
     75 C         -47.9946  -29.5807    8.7460 C.2       2 UNK         0.5006 
     76 O         -48.4599  -28.4503    8.9240 O.2       2 UNK        -0.5106 
     77 CA        -48.5002  -30.4537    7.5845 C.3       2 UNK         0.0296 
     78 CB        -49.5965  -31.4117    8.0820 C.3       2 UNK        -0.2002 
     79 N         -49.0430  -29.6606    6.4841 N.am      2 UNK        -0.4032 
     80 C         -48.3407  -28.8508    5.6783 C.2       1 UNK         0.5000 
     81 O         -47.1138  -28.7359    5.7063 O.2       1 UNK        -0.5238 
     82 H82       -52.3337  -30.0289    3.2109 H         1 UNK         0.0889 
     83 H83       -51.4818  -31.5737    3.1655 H         1 UNK         0.0889 
     84 H84       -51.4883  -30.5261    1.7442 H         1 UNK         0.0889 
     85 H85       -51.2067  -28.4533    4.3201 H         1 UNK         0.3028 
     86 H86       -48.5118  -27.7650    3.8384 H         1 UNK         0.0864 
     87 H87       -48.7657  -26.0665    5.4998 H         1 UNK         0.0720 
     88 H88       -50.0139  -26.9055    6.3523 H         1 UNK         0.0720 
     89 H89       -53.2650  -25.9088    4.5669 H         1 UNK         0.0814 
     90 H90       -52.5227  -27.3799    5.1217 H         1 UNK         0.0814 
     91 H91       -53.3200  -23.8702    6.0461 H         1 UNK         0.1469 
     92 H92       -53.0773  -24.6263   10.2617 H         1 UNK         0.1381 
     93 H93       -51.8749  -27.6453    7.4877 H         1 UNK         0.1206 
     94 H94       -50.8153  -27.1938   10.0013 H         1 UNK         0.0813 
     95 H95       -52.0054  -26.5371   11.0977 H         1 UNK         0.0813 
     96 H96       -50.7965  -30.0479   10.9053 H         1 UNK         0.0638 
     97 H97       -50.9257  -28.6816   11.9826 H         1 UNK         0.0638 
     98 H98       -52.8082  -31.0672   11.9847 H         1 UNK         0.0568 
     99 H99       -52.0349  -30.7291   15.2094 H         1 UNK         0.3450 
    100 H100      -50.6362  -31.7727   15.2100 H         1 UNK         0.3450 
    101 H101      -52.8296  -28.6197   13.6519 H         1 UNK         0.2987 
    102 H102      -55.5381  -28.2861   14.1536 H         1 UNK         0.0766 
    103 H103      -56.8028  -29.0853   16.1580 H         1 UNK         0.0798 
    104 H104      -56.9718  -30.1950   14.8087 H         1 UNK         0.0798 
    105 H105      -55.8936  -30.5959   16.1383 H         1 UNK         0.0798 
    106 H106      -54.2962  -27.3612   15.7153 H         1 UNK         0.3198 
    107 H107      -52.7659  -28.2360   18.5470 H         1 UNK         0.0843 
    108 H108      -50.7521  -28.0527   16.2374 H         1 UNK         0.0831 
    109 H109      -50.7577  -29.2467   17.5232 H         1 UNK         0.0831 
    110 H110      -50.4293  -27.5655   17.9020 H         1 UNK         0.0831 
    111 H111      -52.3312  -26.1338   16.5187 H         1 UNK         0.3133 
    112 H112      -55.1252  -24.2485   17.4471 H         1 UNK         0.0566 
    113 H113      -52.2319  -23.5555   18.2032 H         1 UNK         0.0814 
    114 H114      -53.6060  -23.5307   19.2993 H         1 UNK         0.0814 
    115 H115      -53.5439  -22.4015   17.9575 H         1 UNK         0.0814 
    116 H116      -52.8783  -23.6297   15.8017 H         1 UNK         0.3091 
    117 H117      -53.9016  -25.4079   12.8794 H         1 UNK         0.0702 
    118 H118      -53.6767  -23.1090   11.9522 H         1 UNK         0.0785 
    119 H119      -53.7627  -22.4193   13.5684 H         1 UNK         0.0785 
    120 H120      -55.1544  -23.2454   12.8831 H         1 UNK         0.0785 
    121 H121      -51.6365  -23.7545   13.4643 H         1 UNK         0.2998 
    122 H122      -49.6804  -25.5538   15.1991 H         1 UNK         0.0697 
    123 H123      -49.2864  -26.7967   12.4293 H         1 UNK         0.0825 
    124 H124      -49.4322  -27.6836   13.9418 H         1 UNK         0.0825 
    125 H125      -48.0446  -26.6457   13.6763 H         1 UNK         0.0825 
    126 H126      -49.4037  -24.2925   12.5095 H         1 UNK         0.3029 
    127 H127      -49.0227  -21.0858   13.8711 H         1 UNK         0.0897 
    128 H128      -46.8110  -20.9028   12.7651 H         1 UNK         0.0792 
    129 H129      -46.6625  -21.7729   14.2835 H         1 UNK         0.0792 
    130 H130      -46.6372  -22.6556   12.7649 H         1 UNK         0.0792 
    131 H131      -48.5597  -22.2842   11.2551 H         1 UNK         0.3086 
    132 H132      -51.8072  -22.9029   10.5386 H         1 UNK         0.0583 
    133 H133      -52.4276  -20.5534   10.2311 H         1 UNK         0.1020 
    134 H134      -50.9211  -20.2264    9.4183 H         1 UNK         0.1020 
    135 H135      -54.0260  -22.5256    9.4829 H         1 UNK         0.0694 
    136 H136      -54.6099  -22.4668    7.8415 H         1 UNK         0.0694 
    137 H137      -49.7955  -22.5092    8.6055 H         1 UNK         0.2989 
    138 H138      -49.2958  -25.6811    8.3066 H         1 UNK         0.1055 
    139 H139      -47.5298  -24.5120    6.9185 H         1 UNK         0.0806 
    140 H140      -47.6884  -23.0871    7.9328 H         1 UNK         0.0806 
    141 H141      -49.0508  -23.6437    6.9593 H         1 UNK         0.0806 
    142 H142      -47.5795  -26.5420    9.3839 H         1 UNK         0.3061 
    143 H143      -44.7213  -25.8382   10.3440 H         1 UNK         0.0734 
    144 H144      -44.8216  -24.2657   12.2299 H         1 UNK         0.0832 
    145 H145      -46.1976  -25.1089   12.9303 H         1 UNK         0.0832 
    146 H146      -44.6168  -25.8874   12.8618 H         1 UNK         0.0832 
    147 H147      -46.9328  -27.2788   11.7502 H         1 UNK         0.3156 
    148 H148      -45.6947  -30.2823   11.0586 H         1 UNK         0.0589 
    149 H149      -48.3592  -28.8701   11.6295 H         1 UNK         0.0808 
    150 H150      -47.9187  -30.4982   12.1068 H         1 UNK         0.0808 
    151 H151      -47.0719  -29.1387   12.8105 H         1 UNK         0.0808 
    152 H152      -46.7534  -31.0813    9.2899 H         1 UNK         0.3098 
    153 H153      -47.6638  -31.0392    7.1968 H         1 UNK         0.0720 
    154 H154      -49.9394  -32.0719    7.2851 H         1 UNK         0.0791 
    155 H155      -49.2302  -32.0466    8.8900 H         1 UNK         0.0791 
    156 H156      -50.4621  -30.8685    8.4647 H         1 UNK         0.0791 
    157 H157      -50.0460  -29.6704    6.3809 H         1 UNK         0.3028 
@<TRIPOS>BOND
     1    1    2 1    
     2    1   82 1    
     3    1   83 1    
     4    1   84 1    
     5    2    3 2    
     6    2    4 am   BACKBONE|DICT|INTERRES
     7    4    5 1    
     8    4   85 1    
     9    5    6 1    
    10    5   80 1    
    11    5   86 1    
    12    6    7 1    
    13    6   87 1    
    14    6   88 1    
    15    7    8 1    
    16    8    9 1    
    17    8   89 1    
    18    8   90 1    
    19    9   10 ar   
    20    9   14 ar   
    21   10   11 ar   
    22   10   91 1    
    23   11   12 ar   
    24   11   58 1    
    25   12   13 ar   
    26   12   92 1    
    27   13   14 ar   
    28   13   15 1    
    29   14   93 1    
    30   15   16 1    
    31   15   94 1    
    32   15   95 1    
    33   16   17 1    
    34   17   18 1    
    35   17   96 1    
    36   17   97 1    
    37   18   19 1    
    38   18   22 1    
    39   18   98 1    
    40   19   20 am   BACKBONE|DICT|INTERRES
    41   19   21 2    
    42   20   99 1    
    43   20  100 1    
    44   22   23 am   BACKBONE|DICT|INTERRES
    45   22  101 1    
    46   23   24 2    
    47   23   25 1    
    48   25   26 1    
    49   25   27 1    
    50   25  102 1    
    51   26  103 1    
    52   26  104 1    
    53   26  105 1    
    54   27   28 am   BACKBONE|DICT|INTERRES
    55   27  106 1    
    56   28   29 2    
    57   28   30 1    
    58   30   31 1    
    59   30   32 1    
    60   30  107 1    
    61   31  108 1    
    62   31  109 1    
    63   31  110 1    
    64   32   33 am   BACKBONE|DICT|INTERRES
    65   32  111 1    
    66   33   34 2    
    67   33   35 1    
    68   35   36 1    
    69   35   37 1    
    70   35  112 1    
    71   36  113 1    
    72   36  114 1    
    73   36  115 1    
    74   37   38 am   BACKBONE|DICT|INTERRES
    75   37  116 1    
    76   38   39 2    
    77   38   40 1    
    78   40   41 1    
    79   40   42 1    
    80   40  117 1    
    81   41  118 1    
    82   41  119 1    
    83   41  120 1    
    84   42   43 am   BACKBONE|DICT|INTERRES
    85   42  121 1    
    86   43   44 2    
    87   43   45 1    
    88   45   46 1    
    89   45   47 1    
    90   45  122 1    
    91   46  123 1    
    92   46  124 1    
    93   46  125 1    
    94   47   48 am   BACKBONE|DICT|INTERRES
    95   47  126 1    
    96   48   49 2    
    97   48   50 1    
    98   50   51 1    
    99   50   52 1    
   100   50  127 1    
   101   51  128 1    
   102   51  129 1    
   103   51  130 1    
   104   52   53 am   BACKBONE|DICT|INTERRES
   105   52  131 1    
   106   53   54 2    
   107   53   55 1    
   108   55   56 1    
   109   55   59 1    
   110   55  132 1    
   111   56   57 1    
   112   56  133 1    
   113   56  134 1    
   114   57   58 1    
   115   58  135 1    
   116   58  136 1    
   117   59   60 am   BACKBONE|DICT|INTERRES
   118   59  137 1    
   119   60   61 2    
   120   60   62 1    
   121   62   63 1    
   122   62   64 1    
   123   62  138 1    
   124   63  139 1    
   125   63  140 1    
   126   63  141 1    
   127   64   65 am   BACKBONE|DICT|INTERRES
   128   64  142 1    
   129   65   66 2    
   130   65   67 1    
   131   67   68 1    
   132   67   69 1    
   133   67  143 1    
   134   68  144 1    
   135   68  145 1    
   136   68  146 1    
   137   69   70 am   BACKBONE|DICT|INTERRES
   138   69  147 1    
   139   70   71 2    
   140   70   72 1    
   141   72   73 1    
   142   72   74 1    
   143   72  148 1    
   144   73  149 1    
   145   73  150 1    
   146   73  151 1    
   147   74   75 am   BACKBONE|DICT|INTERRES
   148   74  152 1    
   149   75   76 2    
   150   75   77 1    
   151   77   78 1    
   152   77   79 1    
   153   77  153 1    
   154   78  154 1    
   155   78  155 1    
   156   78  156 1    
   157   79   80 am   BACKBONE|DICT|INTERRES
   158   79  157 1    
   159   80   81 2    
@<TRIPOS>SUBSTRUCTURE
     1 UNK         1 GROUP             0       ****    0 ROOT    
