@<TRIPOS>MOLECULE
3R207
157   159    1
SMALL
USER_CHARGES


@<TRIPOS>ATOM
      1 CA        -48.2070  -33.1304    5.8995 C.3       0 UNK        -0.1975 
      2 C         -48.6279  -31.6804    5.7099 C.2       0 UNK         0.4852 
      3 O         -48.4526  -31.1300    4.6217 O.2       0 UNK        -0.5216 
      4 N         -49.1903  -31.0629    6.7563 N.am      1 UNK        -0.4461 
      5 CA        -49.6114  -29.6590    6.7769 C.3       1 UNK         0.0864 
      6 C6        -50.5006  -29.3449    8.0044 C.3       14 UNK        -0.0898 
      7 S7        -52.0383  -30.3235    8.0641 S.3       14 UNK        -0.2598 
      8 C8        -53.2352  -29.2278    7.2323 C.3       14 UNK         0.0286 
      9 C9        -53.4085  -27.8814    7.9267 C.ar      14 UNK        -0.0844 
     10 C10       -53.1226  -26.6990    7.2381 C.ar      14 UNK        -0.0881 
     11 C11       -53.2931  -25.4572    7.8559 C.ar      14 UNK        -0.0643 
     12 C12       -53.7846  -25.4015    9.1623 C.ar      14 UNK        -0.0930 
     13 C13       -54.0327  -26.5748    9.8791 C.ar      14 UNK        -0.0827 
     14 C14       -53.8503  -27.8120    9.2518 C.ar      14 UNK        -0.1249 
     15 C15       -54.4135  -26.4915   11.3513 C.3       14 UNK         0.0141 
     16 S16       -56.2103  -26.4962   11.6470 S.3       14 UNK        -0.2313 
     17 C17       -56.7369  -28.1983   11.2437 C.3       14 UNK        -0.0915 
     18 CA        -56.4620  -29.2223   12.3820 C.3       13 UNK         0.0968 
     19 C         -57.4187  -30.4481   12.2855 C.2       13 UNK         0.5732 
     20 N         -56.9321  -31.6660   12.0751 N.am      13 UNK        -0.7310 
     21 O         -58.6304  -30.2914   12.4168 O.2       13 UNK        -0.5035 
     22 N         -55.0360  -29.5829   12.4406 N.am      13 UNK        -0.4233 
     23 C         -54.3914  -30.0175   13.5296 C.2       13 UNK         0.4989 
     24 O         -54.9264  -30.1596   14.6306 O.2       13 UNK        -0.4996 
     25 CA        -52.9064  -30.3834   13.3661 C.3       12 UNK         0.0216 
     26 CB        -52.2728  -29.9886   12.0121 C.3       12 UNK        -0.1964 
     27 N         -52.1407  -29.7893   14.4589 N.am      12 UNK        -0.4276 
     28 C         -51.0799  -30.3577   15.0479 C.2       12 UNK         0.5020 
     29 O         -50.6413  -31.4650   14.7308 O.2       12 UNK        -0.5489 
     30 CA        -50.3609  -29.5764   16.1650 C.3       11 UNK         0.0294 
     31 CB        -48.9560  -29.1523   15.7027 C.3       11 UNK        -0.2019 
     32 N         -51.0976  -28.3920   16.6131 N.am      11 UNK        -0.4493 
     33 C         -52.1386  -28.4262   17.4591 C.2       11 UNK         0.4932 
     34 O         -52.5384  -29.4584   17.9985 O.2       11 UNK        -0.5029 
     35 CA        -52.8713  -27.1027   17.7608 C.3       10 UNK         0.0280 
     36 CB        -52.4638  -26.5697   19.1441 C.3       10 UNK        -0.1976 
     37 N         -52.6632  -26.0483   16.7645 N.am      10 UNK        -0.4242 
     38 C         -53.0169  -26.1161   15.4733 C.2       10 UNK         0.5072 
     39 O         -53.5921  -27.0808   14.9697 O.2       10 UNK        -0.5224 
     40 CA        -52.6075  -24.9326   14.5801 C.3       9 UNK         0.0343 
     41 CB        -53.7230  -23.8774   14.5329 C.3       9 UNK        -0.2003 
     42 N         -51.3348  -24.2860   14.9334 N.am      9 UNK        -0.4272 
     43 C         -50.1534  -24.9008   15.0993 C.2       9 UNK         0.4988 
     44 O         -50.0127  -26.1243   15.1016 O.2       9 UNK        -0.5108 
     45 CA        -48.9271  -23.9908   15.2921 C.3       8 UNK         0.0248 
     46 CB        -47.6344  -24.7901   15.5436 C.3       8 UNK        -0.2001 
     47 N         -48.7373  -23.1264   14.1251 N.am      8 UNK        -0.4140 
     48 C         -49.3636  -21.9575   13.9333 C.2       8 UNK         0.5028 
     49 O         -50.1469  -21.4657   14.7474 O.2       8 UNK        -0.5428 
     50 CA        -49.1187  -21.2462   12.5925 C.3       7 UNK         0.0264 
     51 CB        -47.6637  -20.7651   12.4632 C.3       7 UNK        -0.1988 
     52 N         -49.4638  -22.0994   11.4548 N.am      7 UNK        -0.4454 
     53 C         -50.7080  -22.5027   11.1524 C.2       7 UNK         0.5027 
     54 O         -51.7168  -22.1195   11.7456 O.2       7 UNK        -0.5083 
     55 CA        -50.8504  -23.5210   10.0043 C.3       6 UNK         0.0844 
     56 C56       -50.9329  -22.7978    8.6367 C.3       14 UNK        -0.0967 
     57 S57       -51.1103  -23.9059    7.1968 S.3       14 UNK        -0.2604 
     58 C58       -52.9104  -24.1848    7.1164 C.3       14 UNK         0.0134 
     59 N         -49.8118  -24.5528   10.0912 N.am      6 UNK        -0.4116 
     60 C         -49.7798  -25.4821   11.0595 C.2       5 UNK         0.5034 
     61 O         -50.7058  -25.6748   11.8427 O.2       5 UNK        -0.5045 
     62 CA        -48.5041  -26.3219   11.2206 C.3       5 UNK         0.0224 
     63 CB        -48.6938  -27.7172   10.6190 C.3       5 UNK        -0.1978 
     64 N         -47.3349  -25.6885   10.6122 N.am      5 UNK        -0.4737 
     65 C         -46.6104  -24.7285   11.1997 C.2       4 UNK         0.5027 
     66 O         -46.8336  -24.2992   12.3305 O.2       4 UNK        -0.5211 
     67 CA        -45.4789  -24.1068   10.3636 C.3       4 UNK         0.0297 
     68 CB        -44.2124  -24.9738   10.4367 C.3       4 UNK        -0.1993 
     69 N         -45.8561  -23.9008    8.9624 N.am      4 UNK        -0.4486 
     70 C         -46.8432  -23.0887    8.5609 C.2       3 UNK         0.4961 
     71 O         -47.5115  -22.3961    9.3287 O.2       3 UNK        -0.5105 
     72 CA        -47.1728  -23.0689    7.0590 C.3       3 UNK         0.0299 
     73 CB        -46.3421  -21.9890    6.3482 C.3       3 UNK        -0.1972 
     74 N         -47.0156  -24.3484    6.3538 N.am      3 UNK        -0.4305 
     75 C         -47.5795  -25.5187    6.6906 C.2       2 UNK         0.5006 
     76 O         -48.1823  -25.7117    7.7476 O.2       2 UNK        -0.5106 
     77 CA        -47.4470  -26.6401    5.6443 C.3       2 UNK         0.0296 
     78 CB        -45.9944  -27.1516    5.5291 C.3       2 UNK        -0.2002 
     79 N         -48.4128  -27.7318    5.8464 N.am      2 UNK        -0.4032 
     80 C         -48.3818  -28.7243    6.7498 C.2       1 UNK         0.5000 
     81 O         -47.4587  -28.9261    7.5438 O.2       1 UNK        -0.5238 
     82 H82       -48.4329  -33.4928    6.9023 H         1 UNK         0.0889 
     83 H83       -47.1348  -33.2339    5.7351 H         1 UNK         0.0889 
     84 H84       -48.7252  -33.7682    5.1840 H         1 UNK         0.0889 
     85 H85       -49.3029  -31.5603    7.6277 H         1 UNK         0.3028 
     86 H86       -50.2038  -29.4793    5.8770 H         1 UNK         0.0864 
     87 H87       -49.9565  -29.5702    8.9221 H         1 UNK         0.0720 
     88 H88       -50.7417  -28.2814    8.0495 H         1 UNK         0.0720 
     89 H89       -54.2026  -29.7304    7.1972 H         1 UNK         0.0814 
     90 H90       -52.9244  -29.0947    6.1950 H         1 UNK         0.0814 
     91 H91       -52.7512  -26.7402    6.2233 H         1 UNK         0.1469 
     92 H92       -53.9291  -24.4428    9.6404 H         1 UNK         0.1381 
     93 H93       -54.0339  -28.7272    9.7930 H         1 UNK         0.1206 
     94 H94       -53.9289  -27.2802   11.9217 H         1 UNK         0.0813 
     95 H95       -54.0163  -25.5647   11.7669 H         1 UNK         0.0813 
     96 H96       -56.2978  -28.5218   10.3007 H         1 UNK         0.0638 
     97 H97       -57.8084  -28.1252   11.0481 H         1 UNK         0.0638 
     98 H98       -56.7194  -28.7390   13.3266 H         1 UNK         0.0568 
     99 H99       -55.9421  -31.8145   11.9710 H         1 UNK         0.3450 
    100 H100      -57.5677  -32.4463   12.0220 H         1 UNK         0.3450 
    101 H101      -54.5287  -29.5254   11.5727 H         1 UNK         0.2987 
    102 H102      -52.8669  -31.4714   13.4510 H         1 UNK         0.0766 
    103 H103      -52.7927  -30.4491   11.1715 H         1 UNK         0.0798 
    104 H104      -51.2382  -30.3276   11.9552 H         1 UNK         0.0798 
    105 H105      -52.2642  -28.9089   11.8612 H         1 UNK         0.0798 
    106 H106      -52.4925  -28.9027   14.8090 H         1 UNK         0.3198 
    107 H107      -50.2445  -30.2550   17.0129 H         1 UNK         0.0843 
    108 H108      -48.4357  -28.5826   16.4728 H         1 UNK         0.0831 
    109 H109      -48.9957  -28.5404   14.8007 H         1 UNK         0.0831 
    110 H110      -48.3422  -30.0243   15.4735 H         1 UNK         0.0831 
    111 H111      -50.8249  -27.5087   16.1867 H         1 UNK         0.3133 
    112 H112      -53.9402  -27.3250   17.7813 H         1 UNK         0.0566 
    113 H113      -53.0411  -25.6859   19.4168 H         1 UNK         0.0814 
    114 H114      -51.4058  -26.3063   19.1793 H         1 UNK         0.0814 
    115 H115      -52.6385  -27.3182   19.9184 H         1 UNK         0.0814 
    116 H116      -52.1779  -25.2195   17.0753 H         1 UNK         0.3091 
    117 H117      -52.4885  -25.3336   13.5749 H         1 UNK         0.0702 
    118 H118      -53.5014  -23.1014   13.7995 H         1 UNK         0.0785 
    119 H119      -53.8653  -23.3960   15.5011 H         1 UNK         0.0785 
    120 H120      -54.6748  -24.3280   14.2467 H         1 UNK         0.0785 
    121 H121      -51.3277  -23.2722   14.9341 H         1 UNK         0.2998 
    122 H122      -49.1103  -23.3751   16.1751 H         1 UNK         0.0697 
    123 H123      -47.4045  -25.4589   14.7132 H         1 UNK         0.0825 
    124 H124      -47.7238  -25.4048   16.4402 H         1 UNK         0.0825 
    125 H125      -46.7797  -24.1289   15.6863 H         1 UNK         0.0825 
    126 H126      -48.1146  -23.4825   13.4013 H         1 UNK         0.3029 
    127 H127      -49.7669  -20.3676   12.5613 H         1 UNK         0.0897 
    128 H128      -46.9571  -21.5951   12.4428 H         1 UNK         0.0792 
    129 H129      -47.3893  -20.1223   13.3006 H         1 UNK         0.0792 
    130 H130      -47.5200  -20.1873   11.5499 H         1 UNK         0.0792 
    131 H131      -48.6972  -22.4004   10.8581 H         1 UNK         0.3086 
    132 H132      -51.8021  -24.0199   10.1665 H         1 UNK         0.0583 
    133 H133      -51.7640  -22.0900    8.6341 H         1 UNK         0.1020 
    134 H134      -50.0395  -22.1932    8.4754 H         1 UNK         0.1020 
    135 H135      -53.4511  -23.3239    7.5116 H         1 UNK         0.0694 
    136 H136      -53.2042  -24.2728    6.0694 H         1 UNK         0.0694 
    137 H137      -49.0597  -24.5187    9.4152 H         1 UNK         0.2989 
    138 H138      -48.3303  -26.4373   12.2935 H         1 UNK         0.1055 
    139 H139      -48.8352  -27.6512    9.5420 H         1 UNK         0.0806 
    140 H140      -47.8305  -28.3557   10.8065 H         1 UNK         0.0806 
    141 H141      -49.5688  -28.2134   11.0417 H         1 UNK         0.0806 
    142 H142      -47.1534  -25.9198    9.6421 H         1 UNK         0.3061 
    143 H143      -45.2498  -23.1296   10.7943 H         1 UNK         0.0734 
    144 H144      -44.3688  -25.9592    9.9957 H         1 UNK         0.0832 
    145 H145      -43.3769  -24.5018    9.9195 H         1 UNK         0.0832 
    146 H146      -43.9053  -25.1261   11.4725 H         1 UNK         0.0832 
    147 H147      -45.3642  -24.4397    8.2646 H         1 UNK         0.3156 
    148 H148      -48.2241  -22.7919    6.9682 H         1 UNK         0.0589 
    149 H149      -46.6564  -21.8620    5.3121 H         1 UNK         0.0808 
    150 H150      -46.4579  -21.0211    6.8386 H         1 UNK         0.0808 
    151 H151      -45.2783  -22.2300    6.3510 H         1 UNK         0.0808 
    152 H152      -46.5256  -24.3016    5.4719 H         1 UNK         0.3098 
    153 H153      -47.7169  -26.2019    4.6820 H         1 UNK         0.0720 
    154 H154      -45.3301  -26.3702    5.1588 H         1 UNK         0.0791 
    155 H155      -45.9223  -27.9894    4.8354 H         1 UNK         0.0791 
    156 H156      -45.5974  -27.4774    6.4909 H         1 UNK         0.0791 
    157 H157      -49.2367  -27.6650    5.2657 H         1 UNK         0.3028 
@<TRIPOS>BOND
     1    1    2 1    
     2    1   82 1    
     3    1   83 1    
     4    1   84 1    
     5    2    3 2    
     6    2    4 am   BACKBONE|DICT|INTERRES
     7    4    5 1    
     8    4   85 1    
     9    5    6 1    
    10    5   80 1    
    11    5   86 1    
    12    6    7 1    
    13    6   87 1    
    14    6   88 1    
    15    7    8 1    
    16    8    9 1    
    17    8   89 1    
    18    8   90 1    
    19    9   10 ar   
    20    9   14 ar   
    21   10   11 ar   
    22   10   91 1    
    23   11   12 ar   
    24   11   58 1    
    25   12   13 ar   
    26   12   92 1    
    27   13   14 ar   
    28   13   15 1    
    29   14   93 1    
    30   15   16 1    
    31   15   94 1    
    32   15   95 1    
    33   16   17 1    
    34   17   18 1    
    35   17   96 1    
    36   17   97 1    
    37   18   19 1    
    38   18   22 1    
    39   18   98 1    
    40   19   20 am   BACKBONE|DICT|INTERRES
    41   19   21 2    
    42   20   99 1    
    43   20  100 1    
    44   22   23 am   BACKBONE|DICT|INTERRES
    45   22  101 1    
    46   23   24 2    
    47   23   25 1    
    48   25   26 1    
    49   25   27 1    
    50   25  102 1    
    51   26  103 1    
    52   26  104 1    
    53   26  105 1    
    54   27   28 am   BACKBONE|DICT|INTERRES
    55   27  106 1    
    56   28   29 2    
    57   28   30 1    
    58   30   31 1    
    59   30   32 1    
    60   30  107 1    
    61   31  108 1    
    62   31  109 1    
    63   31  110 1    
    64   32   33 am   BACKBONE|DICT|INTERRES
    65   32  111 1    
    66   33   34 2    
    67   33   35 1    
    68   35   36 1    
    69   35   37 1    
    70   35  112 1    
    71   36  113 1    
    72   36  114 1    
    73   36  115 1    
    74   37   38 am   BACKBONE|DICT|INTERRES
    75   37  116 1    
    76   38   39 2    
    77   38   40 1    
    78   40   41 1    
    79   40   42 1    
    80   40  117 1    
    81   41  118 1    
    82   41  119 1    
    83   41  120 1    
    84   42   43 am   BACKBONE|DICT|INTERRES
    85   42  121 1    
    86   43   44 2    
    87   43   45 1    
    88   45   46 1    
    89   45   47 1    
    90   45  122 1    
    91   46  123 1    
    92   46  124 1    
    93   46  125 1    
    94   47   48 am   BACKBONE|DICT|INTERRES
    95   47  126 1    
    96   48   49 2    
    97   48   50 1    
    98   50   51 1    
    99   50   52 1    
   100   50  127 1    
   101   51  128 1    
   102   51  129 1    
   103   51  130 1    
   104   52   53 am   BACKBONE|DICT|INTERRES
   105   52  131 1    
   106   53   54 2    
   107   53   55 1    
   108   55   56 1    
   109   55   59 1    
   110   55  132 1    
   111   56   57 1    
   112   56  133 1    
   113   56  134 1    
   114   57   58 1    
   115   58  135 1    
   116   58  136 1    
   117   59   60 am   BACKBONE|DICT|INTERRES
   118   59  137 1    
   119   60   61 2    
   120   60   62 1    
   121   62   63 1    
   122   62   64 1    
   123   62  138 1    
   124   63  139 1    
   125   63  140 1    
   126   63  141 1    
   127   64   65 am   BACKBONE|DICT|INTERRES
   128   64  142 1    
   129   65   66 2    
   130   65   67 1    
   131   67   68 1    
   132   67   69 1    
   133   67  143 1    
   134   68  144 1    
   135   68  145 1    
   136   68  146 1    
   137   69   70 am   BACKBONE|DICT|INTERRES
   138   69  147 1    
   139   70   71 2    
   140   70   72 1    
   141   72   73 1    
   142   72   74 1    
   143   72  148 1    
   144   73  149 1    
   145   73  150 1    
   146   73  151 1    
   147   74   75 am   BACKBONE|DICT|INTERRES
   148   74  152 1    
   149   75   76 2    
   150   75   77 1    
   151   77   78 1    
   152   77   79 1    
   153   77  153 1    
   154   78  154 1    
   155   78  155 1    
   156   78  156 1    
   157   79   80 am   BACKBONE|DICT|INTERRES
   158   79  157 1    
   159   80   81 2    
@<TRIPOS>SUBSTRUCTURE
     1 UNK         1 GROUP             0       ****    0 ROOT    
