@<TRIPOS>MOLECULE
3R207
157   159    1
SMALL
USER_CHARGES


@<TRIPOS>ATOM
      1 CA        -51.0460  -23.9170    3.1207 C.3       0 UNK        -0.1975 
      2 C         -50.6568  -24.8465    4.2601 C.2       0 UNK         0.4852 
      3 O         -49.8787  -24.4552    5.1334 O.2       0 UNK        -0.5216 
      4 N         -51.1929  -26.0755    4.2658 N.am      1 UNK        -0.4461 
      5 CA        -50.9041  -27.1014    5.2731 C.3       1 UNK         0.0864 
      6 C6        -51.8330  -28.3399    5.1565 C.3       14 UNK        -0.0898 
      7 S7        -53.6265  -27.9768    5.0499 S.3       14 UNK        -0.2598 
      8 C8        -54.0060  -27.0253    6.5610 C.3       14 UNK         0.0286 
      9 C9        -53.9225  -27.8661    7.8283 C.ar      14 UNK        -0.0844 
     10 C10       -52.6889  -28.0548    8.4504 C.ar      14 UNK        -0.0881 
     11 C11       -52.5724  -28.8080    9.6227 C.ar      14 UNK        -0.0643 
     12 C12       -53.7296  -29.3463   10.1886 C.ar      14 UNK        -0.0930 
     13 C13       -54.9791  -29.1664    9.5852 C.ar      14 UNK        -0.0827 
     14 C14       -55.0687  -28.4283    8.3994 C.ar      14 UNK        -0.1249 
     15 C15       -56.2310  -29.7385   10.2377 C.3       14 UNK         0.0141 
     16 S16       -56.1001  -31.5280   10.5463 S.3       14 UNK        -0.2313 
     17 C17       -57.5041  -31.7838   11.6859 C.3       14 UNK        -0.0915 
     18 CA        -57.1469  -31.9899   13.1928 C.3       13 UNK         0.0968 
     19 C         -56.2629  -33.2284   13.5417 C.2       13 UNK         0.5732 
     20 N         -56.1265  -34.2008   12.6498 N.am      13 UNK        -0.7310 
     21 O         -55.7590  -33.3518   14.6571 O.2       13 UNK        -0.5035 
     22 N         -56.7754  -30.7436   13.8885 N.am      13 UNK        -0.4233 
     23 C         -55.5664  -30.1688   13.9580 C.2       13 UNK         0.4989 
     24 O         -54.5507  -30.5867   13.3990 O.2       13 UNK        -0.4996 
     25 CA        -55.4672  -28.9232   14.8561 C.3       12 UNK         0.0216 
     26 CB        -54.8761  -29.2916   16.2267 C.3       12 UNK        -0.1964 
     27 N         -54.6402  -27.8828   14.2442 N.am      12 UNK        -0.4276 
     28 C         -55.0198  -27.1302   13.2027 C.2       12 UNK         0.5020 
     29 O         -56.1418  -27.1890   12.6959 O.2       12 UNK        -0.5489 
     30 CA        -53.9785  -26.1262   12.6647 C.3       11 UNK         0.0294 
     31 CB        -54.5629  -25.1479   11.6260 C.3       11 UNK        -0.2019 
     32 N         -53.2777  -25.3896   13.7244 N.am      11 UNK        -0.4493 
     33 C         -53.8123  -24.6874   14.7372 C.2       11 UNK         0.4932 
     34 O         -55.0223  -24.5102   14.8873 O.2       11 UNK        -0.5029 
     35 CA        -52.8245  -24.0773   15.7562 C.3       10 UNK         0.0280 
     36 CB        -53.4642  -23.8490   17.1422 C.3       10 UNK        -0.1976 
     37 N         -51.5646  -24.8223   15.8857 N.am      10 UNK        -0.4242 
     38 C         -51.4036  -26.1028   16.2608 C.2       10 UNK         0.5072 
     39 O         -52.3371  -26.8381   16.5858 O.2       10 UNK        -0.5224 
     40 CA        -49.9779  -26.6931   16.2320 C.3       9 UNK         0.0343 
     41 CB        -49.9257  -27.9319   15.3202 C.3       9 UNK        -0.2003 
     42 N         -48.9598  -25.7389   15.7843 N.am      9 UNK        -0.4272 
     43 C         -48.3374  -24.8475   16.5679 C.2       9 UNK         0.4988 
     44 O         -48.5052  -24.7709   17.7851 O.2       9 UNK        -0.5108 
     45 CA        -47.3899  -23.8501   15.8730 C.3       8 UNK         0.0248 
     46 CB        -45.9611  -24.4139   15.8213 C.3       8 UNK        -0.2001 
     47 N         -47.8170  -23.4796   14.5187 N.am      8 UNK        -0.4140 
     48 C         -48.9667  -22.8535   14.2230 C.2       8 UNK         0.5028 
     49 O         -49.7753  -22.4722   15.0690 O.2       8 UNK        -0.5428 
     50 CA        -49.3148  -22.7046   12.7315 C.3       7 UNK         0.0264 
     51 CB        -48.5536  -21.5279   12.1031 C.3       7 UNK        -0.1988 
     52 N         -49.0615  -23.9364   11.9762 N.am      7 UNK        -0.4454 
     53 C         -49.6761  -25.1034   12.2230 C.2       7 UNK         0.5027 
     54 O         -50.5660  -25.2393   13.0605 O.2       7 UNK        -0.5083 
     55 CA        -49.2044  -26.3466   11.4582 C.3       6 UNK         0.0844 
     56 C56       -50.0197  -26.5558   10.1669 C.3       14 UNK        -0.0967 
     57 S57       -49.7803  -28.2535    9.5556 S.3       14 UNK        -0.2604 
     58 C58       -51.2281  -29.0877   10.2975 C.3       14 UNK         0.0134 
     59 N         -47.7618  -26.3125   11.2223 N.am      6 UNK        -0.4116 
     60 C         -46.8447  -26.6190   12.1487 C.2       5 UNK         0.5034 
     61 O         -47.1163  -27.0018   13.2869 O.2       5 UNK        -0.5045 
     62 CA        -45.3743  -26.4221   11.7468 C.3       5 UNK         0.0224 
     63 CB        -44.8497  -27.6499   10.9857 C.3       5 UNK        -0.1978 
     64 N         -45.1691  -25.2164   10.9388 N.am      5 UNK        -0.4737 
     65 C         -45.3616  -23.9698   11.3932 C.2       4 UNK         0.5027 
     66 O         -45.7027  -23.7094   12.5468 O.2       4 UNK        -0.5211 
     67 CA        -45.1875  -22.8192   10.3882 C.3       4 UNK         0.0297 
     68 CB        -43.7333  -22.3231   10.3954 C.3       4 UNK        -0.1993 
     69 N         -45.5855  -23.1403    9.0142 N.am      4 UNK        -0.4486 
     70 C         -46.7832  -23.5960    8.6192 C.2       3 UNK         0.4961 
     71 O         -47.7026  -23.8710    9.3937 O.2       3 UNK        -0.5105 
     72 CA        -46.9980  -23.7831    7.1036 C.3       3 UNK         0.0299 
     73 CB        -45.8079  -23.3258    6.2283 C.3       3 UNK        -0.1972 
     74 N         -47.3807  -25.1547    6.7550 N.am      3 UNK        -0.4305 
     75 C         -46.7074  -26.2827    7.0422 C.2       2 UNK         0.5006 
     76 O         -45.6656  -26.3044    7.7009 O.2       2 UNK        -0.5106 
     77 CA        -47.2899  -27.6063    6.5062 C.3       2 UNK         0.0296 
     78 CB        -46.9080  -28.8108    7.3879 C.3       2 UNK        -0.2002 
     79 N         -48.7489  -27.5211    6.3799 N.am      2 UNK        -0.4032 
     80 C         -49.4142  -27.5066    5.2169 C.2       1 UNK         0.5000 
     81 O         -48.8970  -27.7524    4.1236 O.2       1 UNK        -0.5238 
     82 H82       -51.5151  -23.0164    3.5158 H         1 UNK         0.0889 
     83 H83       -51.7446  -24.3892    2.4302 H         1 UNK         0.0889 
     84 H84       -50.1599  -23.6222    2.5592 H         1 UNK         0.0889 
     85 H85       -51.8158  -26.3570    3.5223 H         1 UNK         0.3028 
     86 H86       -51.0774  -26.6249    6.2371 H         1 UNK         0.0864 
     87 H87       -51.5772  -28.9106    4.2615 H         1 UNK         0.0720 
     88 H88       -51.6686  -29.0215    5.9927 H         1 UNK         0.0720 
     89 H89       -55.0127  -26.6166    6.4615 H         1 UNK         0.0814 
     90 H90       -53.3465  -26.1599    6.6341 H         1 UNK         0.0814 
     91 H91       -51.8167  -27.6131    8.0048 H         1 UNK         0.1469 
     92 H92       -53.6576  -29.9218   11.1009 H         1 UNK         0.1381 
     93 H93       -56.0306  -28.2785    7.9282 H         1 UNK         0.1206 
     94 H94       -56.3961  -29.2261   11.1836 H         1 UNK         0.0813 
     95 H95       -57.1130  -29.5495    9.6241 H         1 UNK         0.0813 
     96 H96       -58.0617  -32.6482   11.3222 H         1 UNK         0.0638 
     97 H97       -58.1977  -30.9472   11.5890 H         1 UNK         0.0638 
     98 H98       -58.0943  -32.2499   13.6660 H         1 UNK         0.0568 
     99 H99       -56.5222  -34.1094   11.7274 H         1 UNK         0.3450 
    100 H100      -55.5793  -35.0130   12.8870 H         1 UNK         0.3450 
    101 H101      -57.5232  -30.3245   14.4214 H         1 UNK         0.2987 
    102 H102      -56.4675  -28.5131   15.0123 H         1 UNK         0.0766 
    103 H103      -53.8642  -29.6892   16.1355 H         1 UNK         0.0798 
    104 H104      -54.8348  -28.4247   16.8871 H         1 UNK         0.0798 
    105 H105      -55.4816  -30.0508   16.7237 H         1 UNK         0.0798 
    106 H106      -53.7155  -27.7505   14.6310 H         1 UNK         0.3198 
    107 H107      -53.2205  -26.7249   12.1568 H         1 UNK         0.0843 
    108 H108      -54.9907  -25.6885   10.7802 H         1 UNK         0.0831 
    109 H109      -53.7941  -24.4847   11.2298 H         1 UNK         0.0831 
    110 H110      -55.3532  -24.5309   12.0548 H         1 UNK         0.0831 
    111 H111      -52.2598  -25.4126   13.6628 H         1 UNK         0.3133 
    112 H112      -52.5509  -23.1002   15.3560 H         1 UNK         0.0566 
    113 H113      -52.7533  -23.4044   17.8386 H         1 UNK         0.0814 
    114 H114      -54.3159  -23.1711   17.0751 H         1 UNK         0.0814 
    115 H115      -53.8247  -24.7810   17.5790 H         1 UNK         0.0814 
    116 H116      -50.7396  -24.3037   15.6055 H         1 UNK         0.3091 
    117 H117      -49.7407  -27.0129   17.2487 H         1 UNK         0.0702 
    118 H118      -48.9207  -28.3523   15.2761 H         1 UNK         0.0785 
    119 H119      -50.2355  -27.6966   14.3022 H         1 UNK         0.0785 
    120 H120      -50.5884  -28.7168   15.6871 H         1 UNK         0.0785 
    121 H121      -48.7472  -25.7415   14.7959 H         1 UNK         0.2998 
    122 H122      -47.3761  -22.9384   16.4737 H         1 UNK         0.0697 
    123 H123      -45.9042  -25.3115   15.2041 H         1 UNK         0.0825 
    124 H124      -45.6076  -24.6788   16.8187 H         1 UNK         0.0825 
    125 H125      -45.2617  -23.6842   15.4126 H         1 UNK         0.0825 
    126 H126      -47.1766  -23.7083   13.7610 H         1 UNK         0.3029 
    127 H127      -50.3842  -22.4938   12.6589 H         1 UNK         0.0897 
    128 H128      -48.7458  -21.4509   11.0326 H         1 UNK         0.0792 
    129 H129      -48.8596  -20.5850   12.5578 H         1 UNK         0.0792 
    130 H130      -47.4783  -21.6192   12.2492 H         1 UNK         0.0792 
    131 H131      -48.3892  -23.8893   11.2151 H         1 UNK         0.3086 
    132 H132      -49.4139  -27.1950   12.1133 H         1 UNK         0.0583 
    133 H133      -51.0850  -26.3870   10.3396 H         1 UNK         0.1020 
    134 H134      -49.7205  -25.8436    9.3955 H         1 UNK         0.1020 
    135 H135      -51.0476  -30.1629   10.2616 H         1 UNK         0.0694 
    136 H136      -51.2891  -28.8215   11.3540 H         1 UNK         0.0694 
    137 H137      -47.4534  -25.9397   10.3346 H         1 UNK         0.2989 
    138 H138      -44.7955  -26.3140   12.6671 H         1 UNK         0.1055 
    139 H139      -44.9773  -28.5586   11.5758 H         1 UNK         0.0806 
    140 H140      -43.7865  -27.5549   10.7643 H         1 UNK         0.0806 
    141 H141      -45.3759  -27.7975   10.0420 H         1 UNK         0.0806 
    142 H142      -44.9268  -25.3466    9.9647 H         1 UNK         0.3061 
    143 H143      -45.8231  -21.9968   10.7177 H         1 UNK         0.0734 
    144 H144      -43.4184  -22.0540   11.4048 H         1 UNK         0.0832 
    145 H145      -43.0437  -23.0864   10.0324 H         1 UNK         0.0832 
    146 H146      -43.6115  -21.4354    9.7744 H         1 UNK         0.0832 
    147 H147      -44.8940  -22.9725    8.2979 H         1 UNK         0.3156 
    148 H148      -47.8530  -23.1565    6.8458 H         1 UNK         0.0589 
    149 H149      -44.9086  -23.9154    6.4113 H         1 UNK         0.0808 
    150 H150      -46.0485  -23.4211    5.1692 H         1 UNK         0.0808 
    151 H151      -45.5657  -22.2761    6.4004 H         1 UNK         0.0808 
    152 H152      -48.2394  -25.2224    6.2185 H         1 UNK         0.3098 
    153 H153      -46.8341  -27.7615    5.5264 H         1 UNK         0.0720 
    154 H154      -47.3933  -29.7251    7.0464 H         1 UNK         0.0791 
    155 H155      -47.1783  -28.6545    8.4314 H         1 UNK         0.0791 
    156 H156      -45.8318  -28.9862    7.3596 H         1 UNK         0.0791 
    157 H157      -49.2491  -27.3496    7.2418 H         1 UNK         0.3028 
@<TRIPOS>BOND
     1    1    2 1    
     2    1   82 1    
     3    1   83 1    
     4    1   84 1    
     5    2    3 2    
     6    2    4 am   BACKBONE|DICT|INTERRES
     7    4    5 1    
     8    4   85 1    
     9    5    6 1    
    10    5   80 1    
    11    5   86 1    
    12    6    7 1    
    13    6   87 1    
    14    6   88 1    
    15    7    8 1    
    16    8    9 1    
    17    8   89 1    
    18    8   90 1    
    19    9   10 ar   
    20    9   14 ar   
    21   10   11 ar   
    22   10   91 1    
    23   11   12 ar   
    24   11   58 1    
    25   12   13 ar   
    26   12   92 1    
    27   13   14 ar   
    28   13   15 1    
    29   14   93 1    
    30   15   16 1    
    31   15   94 1    
    32   15   95 1    
    33   16   17 1    
    34   17   18 1    
    35   17   96 1    
    36   17   97 1    
    37   18   19 1    
    38   18   22 1    
    39   18   98 1    
    40   19   20 am   BACKBONE|DICT|INTERRES
    41   19   21 2    
    42   20   99 1    
    43   20  100 1    
    44   22   23 am   BACKBONE|DICT|INTERRES
    45   22  101 1    
    46   23   24 2    
    47   23   25 1    
    48   25   26 1    
    49   25   27 1    
    50   25  102 1    
    51   26  103 1    
    52   26  104 1    
    53   26  105 1    
    54   27   28 am   BACKBONE|DICT|INTERRES
    55   27  106 1    
    56   28   29 2    
    57   28   30 1    
    58   30   31 1    
    59   30   32 1    
    60   30  107 1    
    61   31  108 1    
    62   31  109 1    
    63   31  110 1    
    64   32   33 am   BACKBONE|DICT|INTERRES
    65   32  111 1    
    66   33   34 2    
    67   33   35 1    
    68   35   36 1    
    69   35   37 1    
    70   35  112 1    
    71   36  113 1    
    72   36  114 1    
    73   36  115 1    
    74   37   38 am   BACKBONE|DICT|INTERRES
    75   37  116 1    
    76   38   39 2    
    77   38   40 1    
    78   40   41 1    
    79   40   42 1    
    80   40  117 1    
    81   41  118 1    
    82   41  119 1    
    83   41  120 1    
    84   42   43 am   BACKBONE|DICT|INTERRES
    85   42  121 1    
    86   43   44 2    
    87   43   45 1    
    88   45   46 1    
    89   45   47 1    
    90   45  122 1    
    91   46  123 1    
    92   46  124 1    
    93   46  125 1    
    94   47   48 am   BACKBONE|DICT|INTERRES
    95   47  126 1    
    96   48   49 2    
    97   48   50 1    
    98   50   51 1    
    99   50   52 1    
   100   50  127 1    
   101   51  128 1    
   102   51  129 1    
   103   51  130 1    
   104   52   53 am   BACKBONE|DICT|INTERRES
   105   52  131 1    
   106   53   54 2    
   107   53   55 1    
   108   55   56 1    
   109   55   59 1    
   110   55  132 1    
   111   56   57 1    
   112   56  133 1    
   113   56  134 1    
   114   57   58 1    
   115   58  135 1    
   116   58  136 1    
   117   59   60 am   BACKBONE|DICT|INTERRES
   118   59  137 1    
   119   60   61 2    
   120   60   62 1    
   121   62   63 1    
   122   62   64 1    
   123   62  138 1    
   124   63  139 1    
   125   63  140 1    
   126   63  141 1    
   127   64   65 am   BACKBONE|DICT|INTERRES
   128   64  142 1    
   129   65   66 2    
   130   65   67 1    
   131   67   68 1    
   132   67   69 1    
   133   67  143 1    
   134   68  144 1    
   135   68  145 1    
   136   68  146 1    
   137   69   70 am   BACKBONE|DICT|INTERRES
   138   69  147 1    
   139   70   71 2    
   140   70   72 1    
   141   72   73 1    
   142   72   74 1    
   143   72  148 1    
   144   73  149 1    
   145   73  150 1    
   146   73  151 1    
   147   74   75 am   BACKBONE|DICT|INTERRES
   148   74  152 1    
   149   75   76 2    
   150   75   77 1    
   151   77   78 1    
   152   77   79 1    
   153   77  153 1    
   154   78  154 1    
   155   78  155 1    
   156   78  156 1    
   157   79   80 am   BACKBONE|DICT|INTERRES
   158   79  157 1    
   159   80   81 2    
@<TRIPOS>SUBSTRUCTURE
     1 UNK         1 GROUP             0       ****    0 ROOT    
