@<TRIPOS>MOLECULE
3R207
157   159    1
SMALL
USER_CHARGES


@<TRIPOS>ATOM
      1 CA        -45.3742  -32.0452    3.6291 C.3       0 UNK        -0.1975 
      2 C         -46.3541  -30.8924    3.4682 C.2       0 UNK         0.4852 
      3 O         -46.0689  -29.9469    2.7324 O.2       0 UNK        -0.5216 
      4 N         -47.5070  -30.9660    4.1486 N.am      1 UNK        -0.4461 
      5 CA        -48.5600  -29.9423    4.1345 C.3       1 UNK         0.0864 
      6 C6        -49.8657  -30.4823    4.7695 C.3       14 UNK        -0.0898 
      7 S7        -51.3456  -29.5373    4.2785 S.3       14 UNK        -0.2598 
      8 C8        -52.6365  -30.3893    5.2372 C.3       14 UNK         0.0286 
      9 C9        -52.7822  -29.8213    6.6429 C.ar      14 UNK        -0.0844 
     10 C10       -52.0084  -30.3198    7.6973 C.ar      14 UNK        -0.0881 
     11 C11       -52.1786  -29.8325    8.9971 C.ar      14 UNK        -0.0643 
     12 C12       -53.1417  -28.8495    9.2363 C.ar      14 UNK        -0.0930 
     13 C13       -53.9207  -28.3412    8.1946 C.ar      14 UNK        -0.0827 
     14 C14       -53.7304  -28.8243    6.8970 C.ar      14 UNK        -0.1249 
     15 C15       -54.9905  -27.3010    8.4902 C.3       14 UNK         0.0141 
     16 S16       -54.2573  -25.7061    8.9588 S.3       14 UNK        -0.2313 
     17 C17       -55.6929  -24.8539    9.6847 C.3       14 UNK        -0.0915 
     18 CA        -55.6488  -24.8359   11.2372 C.3       13 UNK         0.0968 
     19 C         -56.6545  -23.8037   11.8067 C.2       13 UNK         0.5732 
     20 N         -56.2900  -22.5290   11.8261 N.am      13 UNK        -0.7310 
     21 O         -57.7694  -24.1398   12.2054 O.2       13 UNK        -0.5035 
     22 N         -55.9162  -26.1585   11.8186 N.am      13 UNK        -0.4233 
     23 C         -54.9943  -26.9903   12.3100 C.2       13 UNK         0.4989 
     24 O         -53.7793  -26.8052   12.2283 O.2       13 UNK        -0.4996 
     25 CA        -55.5209  -28.2627   12.9998 C.3       12 UNK         0.0216 
     26 CB        -55.6937  -29.4116   11.9926 C.3       12 UNK        -0.1964 
     27 N         -54.6134  -28.6919   14.0662 N.am      12 UNK        -0.4276 
     28 C         -54.4338  -28.0211   15.2110 C.2       12 UNK         0.5020 
     29 O         -55.1467  -27.0729   15.5514 O.2       12 UNK        -0.5489 
     30 CA        -53.2738  -28.4692   16.1228 C.3       11 UNK         0.0294 
     31 CB        -52.2551  -29.4029   15.4345 C.3       11 UNK        -0.2019 
     32 N         -52.5719  -27.2812   16.6052 N.am      11 UNK        -0.4493 
     33 C         -52.8408  -26.6420   17.7517 C.2       11 UNK         0.4932 
     34 O         -53.6112  -27.0721   18.6131 O.2       11 UNK        -0.5029 
     35 CA        -52.1395  -25.2853   17.9563 C.3       10 UNK         0.0280 
     36 CB        -52.2212  -24.7642   19.4076 C.3       10 UNK        -0.1976 
     37 N         -50.7587  -25.2788   17.4644 N.am      10 UNK        -0.4242 
     38 C         -49.7273  -26.0098   17.9170 C.2       10 UNK         0.5072 
     39 O         -49.8025  -26.7800   18.8758 O.2       10 UNK        -0.5224 
     40 CA        -48.3782  -25.8848   17.1801 C.3       9 UNK         0.0343 
     41 CB        -47.9989  -27.2258   16.5283 C.3       9 UNK        -0.2003 
     42 N         -48.3530  -24.8365   16.1563 N.am      9 UNK        -0.4272 
     43 C         -48.3001  -23.5196   16.3986 C.2       9 UNK         0.4988 
     44 O         -48.1882  -23.0353   17.5251 O.2       9 UNK        -0.5108 
     45 CA        -48.4340  -22.5818   15.1849 C.3       8 UNK         0.0248 
     46 CB        -47.0590  -22.3300   14.5474 C.3       8 UNK        -0.2001 
     47 N         -49.3771  -23.0657   14.1673 N.am      8 UNK        -0.4140 
     48 C         -50.6890  -23.2613   14.3773 C.2       8 UNK         0.5028 
     49 O         -51.2470  -23.0402   15.4520 O.2       8 UNK        -0.5428 
     50 CA        -51.5129  -23.8495   13.2189 C.3       7 UNK         0.0264 
     51 CB        -51.8157  -22.7858   12.1520 C.3       7 UNK        -0.1988 
     52 N         -50.8666  -25.0046   12.5974 N.am      7 UNK        -0.4454 
     53 C         -50.6044  -26.1595   13.2282 C.2       7 UNK         0.5027 
     54 O         -50.9102  -26.3872   14.4011 O.2       7 UNK        -0.5083 
     55 CA        -49.8141  -27.2175   12.4290 C.3       6 UNK         0.0844 
     56 C56       -50.7521  -27.9650   11.4517 C.3       14 UNK        -0.0967 
     57 S57       -49.9329  -29.3323   10.5654 S.3       14 UNK        -0.2604 
     58 C58       -51.3535  -30.3940   10.1484 C.3       14 UNK         0.0134 
     59 N         -48.6462  -26.6256   11.7639 N.am      6 UNK        -0.4116 
     60 C         -47.6471  -25.9891   12.3950 C.2       5 UNK         0.5034 
     61 O         -47.5515  -25.9000   13.6173 O.2       5 UNK        -0.5045 
     62 CA        -46.6085  -25.2729   11.5216 C.3       5 UNK         0.0224 
     63 CB        -45.5065  -26.2409   11.0625 C.3       5 UNK        -0.1978 
     64 N         -47.2345  -24.6194   10.3707 N.am      5 UNK        -0.4737 
     65 C         -47.9841  -23.5107   10.4603 C.2       4 UNK         0.5027 
     66 O         -48.1782  -22.9044   11.5131 O.2       4 UNK        -0.5211 
     67 CA        -48.6609  -23.0120    9.1718 C.3       4 UNK         0.0297 
     68 CB        -47.7093  -22.1004    8.3817 C.3       4 UNK        -0.1993 
     69 N         -49.1260  -24.1016    8.3109 N.am      4 UNK        -0.4486 
     70 C         -50.0859  -24.9750    8.6477 C.2       3 UNK         0.4961 
     71 O         -50.7167  -24.9185    9.7026 O.2       3 UNK        -0.5105 
     72 CA        -50.3372  -26.1364    7.6685 C.3       3 UNK         0.0299 
     73 CB        -51.3289  -25.7219    6.5705 C.3       3 UNK        -0.1972 
     74 N         -49.1211  -26.6515    7.0308 N.am      3 UNK        -0.4305 
     75 C         -48.0281  -27.1073    7.6561 C.2       2 UNK         0.5006 
     76 O         -47.8957  -27.1038    8.8797 O.2       2 UNK        -0.5106 
     77 CA        -46.8959  -27.6436    6.7561 C.3       2 UNK         0.0296 
     78 CB        -45.6648  -28.1014    7.5602 C.3       2 UNK        -0.2002 
     79 N         -47.3513  -28.7520    5.9142 N.am      2 UNK        -0.4032 
     80 C         -48.1139  -28.6319    4.8175 C.2       1 UNK         0.5000 
     81 O         -48.4743  -27.5449    4.3591 O.2       1 UNK        -0.5238 
     82 H82       -44.4286  -31.6803    4.0290 H         1 UNK         0.0889 
     83 H83       -45.1792  -32.5090    2.6626 H         1 UNK         0.0889 
     84 H84       -45.7534  -32.8132    4.3029 H         1 UNK         0.0889 
     85 H85       -47.6877  -31.7780    4.7222 H         1 UNK         0.3028 
     86 H86       -48.7594  -29.7087    3.0860 H         1 UNK         0.0864 
     87 H87       -49.7882  -30.5076    5.8571 H         1 UNK         0.0720 
     88 H88       -50.0320  -31.5137    4.4535 H         1 UNK         0.0720 
     89 H89       -52.4274  -31.4593    5.2793 H         1 UNK         0.0814 
     90 H90       -53.5829  -30.2929    4.7028 H         1 UNK         0.0814 
     91 H91       -51.2836  -31.0997    7.5114 H         1 UNK         0.1469 
     92 H92       -53.2873  -28.4711   10.2369 H         1 UNK         0.1381 
     93 H93       -54.3349  -28.4402    6.0867 H         1 UNK         0.1206 
     94 H94       -55.6238  -27.6649    9.2993 H         1 UNK         0.0813 
     95 H95       -55.6428  -27.1546    7.6281 H         1 UNK         0.0813 
     96 H96       -56.6198  -25.3041    9.3249 H         1 UNK         0.0638 
     97 H97       -55.6788  -23.8368    9.2886 H         1 UNK         0.0638 
     98 H98       -54.6580  -24.5037   11.5547 H         1 UNK         0.0568 
     99 H99       -56.9358  -21.8425   12.1831 H         1 UNK         0.3450 
    100 H100      -55.3870  -22.2377   11.4868 H         1 UNK         0.3450 
    101 H101      -56.8963  -26.3555   11.9679 H         1 UNK         0.2987 
    102 H102      -56.4938  -28.0413   13.4443 H         1 UNK         0.0766 
    103 H103      -56.1442  -30.2846   12.4654 H         1 UNK         0.0798 
    104 H104      -54.7426  -29.7229   11.5615 H         1 UNK         0.0798 
    105 H105      -56.3480  -29.1202   11.1702 H         1 UNK         0.0798 
    106 H106      -53.9745  -29.4403   13.8449 H         1 UNK         0.3198 
    107 H107      -53.7130  -29.0109   16.9630 H         1 UNK         0.0843 
    108 H108      -51.8372  -28.9587   14.5304 H         1 UNK         0.0831 
    109 H109      -52.7071  -30.3580   15.1644 H         1 UNK         0.0831 
    110 H110      -51.4222  -29.6282   16.1011 H         1 UNK         0.0831 
    111 H111      -51.9479  -26.8385   15.9330 H         1 UNK         0.3133 
    112 H112      -52.6798  -24.5760   17.3279 H         1 UNK         0.0566 
    113 H113      -51.7254  -23.7989   19.5103 H         1 UNK         0.0814 
    114 H114      -53.2588  -24.6288   19.7149 H         1 UNK         0.0814 
    115 H115      -51.7623  -25.4553   20.1150 H         1 UNK         0.0814 
    116 H116      -50.5987  -24.6773   16.6636 H         1 UNK         0.3091 
    117 H117      -47.6225  -25.6461   17.9311 H         1 UNK         0.0702 
    118 H118      -47.0151  -27.1754   16.0614 H         1 UNK         0.0785 
    119 H119      -48.7186  -27.5168   15.7621 H         1 UNK         0.0785 
    120 H120      -47.9649  -28.0281   17.2664 H         1 UNK         0.0785 
    121 H121      -48.3624  -25.1541   15.1901 H         1 UNK         0.2998 
    122 H122      -48.8160  -21.6268   15.5513 H         1 UNK         0.0697 
    123 H123      -46.6291  -23.2469   14.1441 H         1 UNK         0.0825 
    124 H124      -46.3548  -21.9344   15.2805 H         1 UNK         0.0825 
    125 H125      -47.1235  -21.6042   13.7365 H         1 UNK         0.0825 
    126 H126      -48.9991  -23.2246   13.2362 H         1 UNK         0.3029 
    127 H127      -52.4639  -24.1955   13.6306 H         1 UNK         0.0897 
    128 H128      -52.4472  -23.1897   11.3602 H         1 UNK         0.0792 
    129 H129      -52.3407  -21.9347   12.5874 H         1 UNK         0.0792 
    130 H130      -50.9046  -22.4069   11.6881 H         1 UNK         0.0792 
    131 H131      -50.6428  -24.9272   11.6073 H         1 UNK         0.3086 
    132 H132      -49.4336  -27.9444   13.1496 H         1 UNK         0.0583 
    133 H133      -51.5995  -28.3750   12.0038 H         1 UNK         0.1020 
    134 H134      -51.1758  -27.2789   10.7169 H         1 UNK         0.1020 
    135 H135      -50.9774  -31.3842    9.8872 H         1 UNK         0.0694 
    136 H136      -51.9830  -30.5358   11.0282 H         1 UNK         0.0694 
    137 H137      -48.6111  -26.6991   10.7519 H         1 UNK         0.2989 
    138 H138      -46.1370  -24.4996   12.1318 H         1 UNK         0.1055 
    139 H139      -44.9562  -26.6295   11.9203 H         1 UNK         0.0806 
    140 H140      -44.7851  -25.7460   10.4124 H         1 UNK         0.0806 
    141 H141      -45.9109  -27.1000   10.5280 H         1 UNK         0.0806 
    142 H142      -47.2062  -25.1232    9.4938 H         1 UNK         0.3061 
    143 H143      -49.5331  -22.4234    9.4646 H         1 UNK         0.0734 
    144 H144      -48.2023  -21.6716    7.5091 H         1 UNK         0.0832 
    145 H145      -47.3670  -21.2685    8.9991 H         1 UNK         0.0832 
    146 H146      -46.8235  -22.6371    8.0395 H         1 UNK         0.0832 
    147 H147      -48.6578  -24.2232    7.4249 H         1 UNK         0.3156 
    148 H148      -50.7807  -26.9554    8.2387 H         1 UNK         0.0589 
    149 H149      -50.8936  -24.9955    5.8837 H         1 UNK         0.0808 
    150 H150      -52.2226  -25.2671    6.9956 H         1 UNK         0.0808 
    151 H151      -51.6530  -26.5854    5.9885 H         1 UNK         0.0808 
    152 H152      -49.1319  -26.7252    6.0172 H         1 UNK         0.3098 
    153 H153      -46.5805  -26.8221    6.1094 H         1 UNK         0.0720 
    154 H154      -45.2498  -27.2757    8.1391 H         1 UNK         0.0791 
    155 H155      -44.8725  -28.4619    6.9039 H         1 UNK         0.0791 
    156 H156      -45.9122  -28.9007    8.2602 H         1 UNK         0.0791 
    157 H157      -47.1163  -29.6815    6.2301 H         1 UNK         0.3028 
@<TRIPOS>BOND
     1    1    2 1    
     2    1   82 1    
     3    1   83 1    
     4    1   84 1    
     5    2    3 2    
     6    2    4 am   BACKBONE|DICT|INTERRES
     7    4    5 1    
     8    4   85 1    
     9    5    6 1    
    10    5   80 1    
    11    5   86 1    
    12    6    7 1    
    13    6   87 1    
    14    6   88 1    
    15    7    8 1    
    16    8    9 1    
    17    8   89 1    
    18    8   90 1    
    19    9   10 ar   
    20    9   14 ar   
    21   10   11 ar   
    22   10   91 1    
    23   11   12 ar   
    24   11   58 1    
    25   12   13 ar   
    26   12   92 1    
    27   13   14 ar   
    28   13   15 1    
    29   14   93 1    
    30   15   16 1    
    31   15   94 1    
    32   15   95 1    
    33   16   17 1    
    34   17   18 1    
    35   17   96 1    
    36   17   97 1    
    37   18   19 1    
    38   18   22 1    
    39   18   98 1    
    40   19   20 am   BACKBONE|DICT|INTERRES
    41   19   21 2    
    42   20   99 1    
    43   20  100 1    
    44   22   23 am   BACKBONE|DICT|INTERRES
    45   22  101 1    
    46   23   24 2    
    47   23   25 1    
    48   25   26 1    
    49   25   27 1    
    50   25  102 1    
    51   26  103 1    
    52   26  104 1    
    53   26  105 1    
    54   27   28 am   BACKBONE|DICT|INTERRES
    55   27  106 1    
    56   28   29 2    
    57   28   30 1    
    58   30   31 1    
    59   30   32 1    
    60   30  107 1    
    61   31  108 1    
    62   31  109 1    
    63   31  110 1    
    64   32   33 am   BACKBONE|DICT|INTERRES
    65   32  111 1    
    66   33   34 2    
    67   33   35 1    
    68   35   36 1    
    69   35   37 1    
    70   35  112 1    
    71   36  113 1    
    72   36  114 1    
    73   36  115 1    
    74   37   38 am   BACKBONE|DICT|INTERRES
    75   37  116 1    
    76   38   39 2    
    77   38   40 1    
    78   40   41 1    
    79   40   42 1    
    80   40  117 1    
    81   41  118 1    
    82   41  119 1    
    83   41  120 1    
    84   42   43 am   BACKBONE|DICT|INTERRES
    85   42  121 1    
    86   43   44 2    
    87   43   45 1    
    88   45   46 1    
    89   45   47 1    
    90   45  122 1    
    91   46  123 1    
    92   46  124 1    
    93   46  125 1    
    94   47   48 am   BACKBONE|DICT|INTERRES
    95   47  126 1    
    96   48   49 2    
    97   48   50 1    
    98   50   51 1    
    99   50   52 1    
   100   50  127 1    
   101   51  128 1    
   102   51  129 1    
   103   51  130 1    
   104   52   53 am   BACKBONE|DICT|INTERRES
   105   52  131 1    
   106   53   54 2    
   107   53   55 1    
   108   55   56 1    
   109   55   59 1    
   110   55  132 1    
   111   56   57 1    
   112   56  133 1    
   113   56  134 1    
   114   57   58 1    
   115   58  135 1    
   116   58  136 1    
   117   59   60 am   BACKBONE|DICT|INTERRES
   118   59  137 1    
   119   60   61 2    
   120   60   62 1    
   121   62   63 1    
   122   62   64 1    
   123   62  138 1    
   124   63  139 1    
   125   63  140 1    
   126   63  141 1    
   127   64   65 am   BACKBONE|DICT|INTERRES
   128   64  142 1    
   129   65   66 2    
   130   65   67 1    
   131   67   68 1    
   132   67   69 1    
   133   67  143 1    
   134   68  144 1    
   135   68  145 1    
   136   68  146 1    
   137   69   70 am   BACKBONE|DICT|INTERRES
   138   69  147 1    
   139   70   71 2    
   140   70   72 1    
   141   72   73 1    
   142   72   74 1    
   143   72  148 1    
   144   73  149 1    
   145   73  150 1    
   146   73  151 1    
   147   74   75 am   BACKBONE|DICT|INTERRES
   148   74  152 1    
   149   75   76 2    
   150   75   77 1    
   151   77   78 1    
   152   77   79 1    
   153   77  153 1    
   154   78  154 1    
   155   78  155 1    
   156   78  156 1    
   157   79   80 am   BACKBONE|DICT|INTERRES
   158   79  157 1    
   159   80   81 2    
@<TRIPOS>SUBSTRUCTURE
     1 UNK         1 GROUP             0       ****    0 ROOT    
