@<TRIPOS>MOLECULE
3R207
157   159    1
SMALL
USER_CHARGES


@<TRIPOS>ATOM
      1 CA        -46.9861  -32.6587    5.8456 C.3       0 UNK        -0.1975 
      2 C         -47.5255  -31.4262    5.1351 C.2       0 UNK         0.4852 
      3 O         -46.9633  -31.0096    4.1217 O.2       0 UNK        -0.5216 
      4 N         -48.6112  -30.8413    5.6594 N.am      1 UNK        -0.4461 
      5 CA        -49.2798  -29.6532    5.1091 C.3       1 UNK         0.0864 
      6 C6        -50.6832  -29.4479    5.7274 C.3       14 UNK        -0.0898 
      7 S7        -51.7894  -30.8761    5.4585 S.3       14 UNK        -0.2598 
      8 C8        -53.3808  -30.2278    6.0662 C.3       14 UNK         0.0286 
      9 C9        -53.3459  -29.9698    7.5654 C.ar      14 UNK        -0.0844 
     10 C10       -52.9966  -28.7062    8.0482 C.ar      14 UNK        -0.0881 
     11 C11       -52.9006  -28.4725    9.4217 C.ar      14 UNK        -0.0643 
     12 C12       -53.1859  -29.5063   10.3165 C.ar      14 UNK        -0.0930 
     13 C13       -53.5913  -30.7594    9.8488 C.ar      14 UNK        -0.0827 
     14 C14       -53.6578  -30.9896    8.4703 C.ar      14 UNK        -0.1249 
     15 C15       -53.9566  -31.8630   10.8313 C.3       14 UNK         0.0141 
     16 S16       -55.6667  -31.6846   11.4421 S.3       14 UNK        -0.2313 
     17 C17       -55.4806  -30.4285   12.7546 C.3       14 UNK        -0.0915 
     18 CA        -56.0333  -29.0269   12.3648 C.3       13 UNK         0.0968 
     19 C         -57.5398  -28.8694   12.7321 C.2       13 UNK         0.5732 
     20 N         -57.9186  -27.9838   13.6491 N.am      13 UNK        -0.7310 
     21 O         -58.3869  -29.5550   12.1650 O.2       13 UNK        -0.5035 
     22 N         -55.1780  -27.9568   12.9000 N.am      13 UNK        -0.4233 
     23 C         -55.1362  -26.7048   12.4204 C.2       13 UNK         0.4989 
     24 O         -55.7262  -26.3530   11.3979 O.2       13 UNK        -0.4996 
     25 CA        -54.2914  -25.6701   13.1963 C.3       12 UNK         0.0216 
     26 CB        -54.8573  -24.2391   13.0749 C.3       12 UNK        -0.1964 
     27 N         -54.0610  -26.0240   14.6020 N.am      12 UNK        -0.4276 
     28 C         -54.9888  -26.1929   15.5587 C.2       12 UNK         0.5020 
     29 O         -56.1975  -26.0333   15.3741 O.2       12 UNK        -0.5489 
     30 CA        -54.4766  -26.6926   16.9285 C.3       11 UNK         0.0294 
     31 CB        -55.6032  -27.2750   17.8082 C.3       11 UNK        -0.2019 
     32 N         -53.3705  -27.6543   16.8072 N.am      11 UNK        -0.4493 
     33 C         -53.3713  -28.7877   16.0867 C.2       11 UNK         0.4932 
     34 O         -54.3633  -29.2138   15.4953 O.2       11 UNK        -0.5029 
     35 CA        -52.0320  -29.5417   15.9555 C.3       10 UNK         0.0280 
     36 CB        -51.9605  -30.3732   14.6568 C.3       10 UNK        -0.1976 
     37 N         -50.8338  -28.6966   16.0647 N.am      10 UNK        -0.4242 
     38 C         -50.5318  -27.5988   15.3544 C.2       10 UNK         0.5072 
     39 O         -51.2899  -27.0522   14.5476 O.2       10 UNK        -0.5224 
     40 CA        -49.1144  -27.0496   15.5707 C.3       9 UNK         0.0343 
     41 CB        -48.1641  -27.6239   14.5073 C.3       9 UNK        -0.2003 
     42 N         -49.0593  -25.5872   15.5352 N.am      9 UNK        -0.4272 
     43 C         -49.5826  -24.7855   16.4738 C.2       9 UNK         0.4988 
     44 O         -50.2224  -25.2049   17.4401 O.2       9 UNK        -0.5108 
     45 CA        -49.3339  -23.2726   16.3568 C.3       8 UNK         0.0248 
     46 CB        -48.0370  -22.8786   17.0853 C.3       8 UNK        -0.2001 
     47 N         -49.2873  -22.7939   14.9725 N.am      8 UNK        -0.4140 
     48 C         -49.7850  -21.6168   14.5613 C.2       8 UNK         0.5028 
     49 O         -50.2945  -20.7895   15.3192 O.2       8 UNK        -0.5428 
     50 CA        -49.7163  -21.2877   13.0537 C.3       7 UNK         0.0264 
     51 CB        -48.5405  -20.3410   12.7633 C.3       7 UNK        -0.1988 
     52 N         -49.5988  -22.4640   12.1903 N.am      7 UNK        -0.4454 
     53 C         -50.5002  -23.4530   12.1105 C.2       7 UNK         0.5027 
     54 O         -51.6063  -23.3976   12.6469 O.2       7 UNK        -0.5083 
     55 CA        -50.1100  -24.7367   11.3432 C.3       6 UNK         0.0844 
     56 C56       -50.9401  -24.8345   10.0421 C.3       14 UNK        -0.0967 
     57 S57       -50.9229  -26.5123    9.3349 S.3       14 UNK        -0.2604 
     58 C58       -52.5372  -27.0921    9.9397 C.3       14 UNK         0.0134 
     59 N         -48.6683  -24.8975   11.0876 N.am      6 UNK        -0.4116 
     60 C         -47.6848  -24.8768   12.0018 C.2       5 UNK         0.5034 
     61 O         -47.8669  -24.6891   13.2050 O.2       5 UNK        -0.5045 
     62 CA        -46.2498  -25.0207   11.4815 C.3       5 UNK         0.0224 
     63 CB        -45.8859  -26.5002   11.2786 C.3       5 UNK        -0.1978 
     64 N         -46.0652  -24.2749   10.2347 N.am      5 UNK        -0.4737 
     65 C         -45.8777  -22.9476   10.1790 C.2       4 UNK         0.5027 
     66 O         -45.7708  -22.2341   11.1758 O.2       4 UNK        -0.5211 
     67 CA        -45.8116  -22.2981    8.7847 C.3       4 UNK         0.0297 
     68 CB        -44.3588  -22.2486    8.2856 C.3       4 UNK        -0.1993 
     69 N         -46.6432  -22.9795    7.7906 N.am      4 UNK        -0.4486 
     70 C         -47.9836  -23.0028    7.8029 C.2       3 UNK         0.4961 
     71 O         -48.6719  -22.3852    8.6153 O.2       3 UNK        -0.5105 
     72 CA        -48.6729  -23.8970    6.7533 C.3       3 UNK         0.0299 
     73 CB        -49.0176  -23.0810    5.4978 C.3       3 UNK        -0.1972 
     74 N         -47.9017  -25.0853    6.3653 N.am      3 UNK        -0.4305 
     75 C         -47.4599  -26.0316    7.2049 C.2       2 UNK         0.5006 
     76 O         -47.6295  -25.9960    8.4248 O.2       2 UNK        -0.5106 
     77 CA        -46.6780  -27.1970    6.5784 C.3       2 UNK         0.0296 
     78 CB        -45.5466  -27.6838    7.5025 C.3       2 UNK        -0.2002 
     79 N         -47.5616  -28.3206    6.2739 N.am      2 UNK        -0.4032 
     80 C         -48.4371  -28.3663    5.2587 C.2       1 UNK         0.5000 
     81 O         -48.5859  -27.4501    4.4472 O.2       1 UNK        -0.5238 
     82 H82       -46.9887  -33.5126    5.1687 H         1 UNK         0.0889 
     83 H83       -47.5813  -32.9187    6.7208 H         1 UNK         0.0889 
     84 H84       -45.9610  -32.4851    6.1718 H         1 UNK         0.0889 
     85 H85       -49.0518  -31.2486    6.4725 H         1 UNK         0.3028 
     86 H86       -49.4077  -29.8175    4.0367 H         1 UNK         0.0864 
     87 H87       -51.1627  -28.5637    5.3022 H         1 UNK         0.0720 
     88 H88       -50.5955  -29.2698    6.8007 H         1 UNK         0.0720 
     89 H89       -54.1675  -30.9471    5.8337 H         1 UNK         0.0814 
     90 H90       -53.6350  -29.3150    5.5251 H         1 UNK         0.0814 
     91 H91       -52.7750  -27.9059    7.3555 H         1 UNK         0.1469 
     92 H92       -53.1189  -29.3266   11.3796 H         1 UNK         0.1381 
     93 H93       -53.9489  -31.9632    8.1000 H         1 UNK         0.1206 
     94 H94       -53.2544  -31.8783   11.6661 H         1 UNK         0.0813 
     95 H95       -53.8639  -32.8360   10.3465 H         1 UNK         0.0813 
     96 H96       -54.4223  -30.3645   13.0027 H         1 UNK         0.0638 
     97 H97       -55.9541  -30.8015   13.6649 H         1 UNK         0.0638 
     98 H98       -55.9843  -28.9410   11.2775 H         1 UNK         0.0568 
     99 H99       -58.8978  -27.8942   13.8672 H         1 UNK         0.3450 
    100 H100      -57.2422  -27.4018   14.1294 H         1 UNK         0.3450 
    101 H101      -54.7199  -28.1691   13.7793 H         1 UNK         0.2987 
    102 H102      -53.3056  -25.6699   12.7306 H         1 UNK         0.0766 
    103 H103      -54.2510  -23.5255   13.6328 H         1 UNK         0.0798 
    104 H104      -55.8810  -24.1736   13.4446 H         1 UNK         0.0798 
    105 H105      -54.8639  -23.9085   12.0356 H         1 UNK         0.0798 
    106 H106      -53.0953  -26.2575   14.8235 H         1 UNK         0.3198 
    107 H107      -54.0732  -25.8167   17.4391 H         1 UNK         0.0843 
    108 H108      -56.0888  -28.1270   17.3309 H         1 UNK         0.0831 
    109 H109      -56.3745  -26.5285   18.0013 H         1 UNK         0.0831 
    110 H110      -55.2229  -27.6037   18.7752 H         1 UNK         0.0831 
    111 H111      -52.4988  -27.3772   17.2386 H         1 UNK         0.3133 
    112 H112      -51.9951  -30.2355   16.7964 H         1 UNK         0.0566 
    113 H113      -51.0174  -30.9146   14.5829 H         1 UNK         0.0814 
    114 H114      -52.7578  -31.1165   14.6198 H         1 UNK         0.0814 
    115 H115      -52.0542  -29.7437   13.7710 H         1 UNK         0.0814 
    116 H116      -50.1375  -29.0332   16.7160 H         1 UNK         0.3091 
    117 H117      -48.7579  -27.3657   16.5536 H         1 UNK         0.0702 
    118 H118      -48.1050  -28.7106   14.5814 H         1 UNK         0.0785 
    119 H119      -48.5020  -27.3876   13.4975 H         1 UNK         0.0785 
    120 H120      -47.1521  -27.2357   14.6241 H         1 UNK         0.0785 
    121 H121      -48.5613  -25.1889   14.7427 H         1 UNK         0.2998 
    122 H122      -50.1699  -22.7934   16.8712 H         1 UNK         0.0697 
    123 H123      -47.1582  -23.3042   16.5994 H         1 UNK         0.0825 
    124 H124      -48.0443  -23.2308   18.1178 H         1 UNK         0.0825 
    125 H125      -47.9126  -21.7960   17.1142 H         1 UNK         0.0825 
    126 H126      -48.8711  -23.4112   14.2823 H         1 UNK         0.3029 
    127 H127      -50.6451  -20.7765   12.7915 H         1 UNK         0.0897 
    128 H128      -48.5250  -20.0352   11.7169 H         1 UNK         0.0792 
    129 H129      -47.5813  -20.8092   12.9896 H         1 UNK         0.0792 
    130 H130      -48.6110  -19.4335   13.3645 H         1 UNK         0.0792 
    131 H131      -48.7245  -22.5775   11.6970 H         1 UNK         0.3086 
    132 H132      -50.3993  -25.5640   11.9954 H         1 UNK         0.0583 
    133 H133      -51.9786  -24.5415   10.2122 H         1 UNK         0.1020 
    134 H134      -50.5652  -24.1325    9.2982 H         1 UNK         0.1020 
    135 H135      -52.5091  -27.0900   11.0294 H         1 UNK         0.0694 
    136 H136      -53.3190  -26.3930    9.6392 H         1 UNK         0.0694 
    137 H137      -48.4130  -25.1056   10.1276 H         1 UNK         0.2989 
    138 H138      -45.5777  -24.6106   12.2392 H         1 UNK         0.1055 
    139 H139      -45.9259  -27.0407   12.2251 H         1 UNK         0.0806 
    140 H140      -44.8755  -26.6112   10.8850 H         1 UNK         0.0806 
    141 H141      -46.5702  -27.0014   10.5940 H         1 UNK         0.0806 
    142 H142      -46.2284  -24.7864    9.3754 H         1 UNK         0.3061 
    143 H143      -46.1750  -21.2726    8.8819 H         1 UNK         0.0734 
    144 H144      -43.7211  -21.7218    8.9971 H         1 UNK         0.0832 
    145 H145      -44.2824  -21.7215    7.3343 H         1 UNK         0.0832 
    146 H146      -43.9411  -23.2474    8.1528 H         1 UNK         0.0832 
    147 H147      -46.1645  -23.5076    7.0757 H         1 UNK         0.3156 
    148 H148      -49.6072  -24.2543    7.1885 H         1 UNK         0.0589 
    149 H149      -48.1214  -22.7251    4.9879 H         1 UNK         0.0808 
    150 H150      -49.5976  -23.6706    4.7875 H         1 UNK         0.0808 
    151 H151      -49.6165  -22.2056    5.7536 H         1 UNK         0.0808 
    152 H152      -47.7610  -25.2292    5.3743 H         1 UNK         0.3098 
    153 H153      -46.2209  -26.8487    5.6497 H         1 UNK         0.0720 
    154 H154      -44.9371  -28.4441    7.0139 H         1 UNK         0.0791 
    155 H155      -45.9328  -28.1107    8.4289 H         1 UNK         0.0791 
    156 H156      -44.8823  -26.8624    7.7746 H         1 UNK         0.0791 
    157 H157      -47.5249  -29.1085    6.9034 H         1 UNK         0.3028 
@<TRIPOS>BOND
     1    1    2 1    
     2    1   82 1    
     3    1   83 1    
     4    1   84 1    
     5    2    3 2    
     6    2    4 am   BACKBONE|DICT|INTERRES
     7    4    5 1    
     8    4   85 1    
     9    5    6 1    
    10    5   80 1    
    11    5   86 1    
    12    6    7 1    
    13    6   87 1    
    14    6   88 1    
    15    7    8 1    
    16    8    9 1    
    17    8   89 1    
    18    8   90 1    
    19    9   10 ar   
    20    9   14 ar   
    21   10   11 ar   
    22   10   91 1    
    23   11   12 ar   
    24   11   58 1    
    25   12   13 ar   
    26   12   92 1    
    27   13   14 ar   
    28   13   15 1    
    29   14   93 1    
    30   15   16 1    
    31   15   94 1    
    32   15   95 1    
    33   16   17 1    
    34   17   18 1    
    35   17   96 1    
    36   17   97 1    
    37   18   19 1    
    38   18   22 1    
    39   18   98 1    
    40   19   20 am   BACKBONE|DICT|INTERRES
    41   19   21 2    
    42   20   99 1    
    43   20  100 1    
    44   22   23 am   BACKBONE|DICT|INTERRES
    45   22  101 1    
    46   23   24 2    
    47   23   25 1    
    48   25   26 1    
    49   25   27 1    
    50   25  102 1    
    51   26  103 1    
    52   26  104 1    
    53   26  105 1    
    54   27   28 am   BACKBONE|DICT|INTERRES
    55   27  106 1    
    56   28   29 2    
    57   28   30 1    
    58   30   31 1    
    59   30   32 1    
    60   30  107 1    
    61   31  108 1    
    62   31  109 1    
    63   31  110 1    
    64   32   33 am   BACKBONE|DICT|INTERRES
    65   32  111 1    
    66   33   34 2    
    67   33   35 1    
    68   35   36 1    
    69   35   37 1    
    70   35  112 1    
    71   36  113 1    
    72   36  114 1    
    73   36  115 1    
    74   37   38 am   BACKBONE|DICT|INTERRES
    75   37  116 1    
    76   38   39 2    
    77   38   40 1    
    78   40   41 1    
    79   40   42 1    
    80   40  117 1    
    81   41  118 1    
    82   41  119 1    
    83   41  120 1    
    84   42   43 am   BACKBONE|DICT|INTERRES
    85   42  121 1    
    86   43   44 2    
    87   43   45 1    
    88   45   46 1    
    89   45   47 1    
    90   45  122 1    
    91   46  123 1    
    92   46  124 1    
    93   46  125 1    
    94   47   48 am   BACKBONE|DICT|INTERRES
    95   47  126 1    
    96   48   49 2    
    97   48   50 1    
    98   50   51 1    
    99   50   52 1    
   100   50  127 1    
   101   51  128 1    
   102   51  129 1    
   103   51  130 1    
   104   52   53 am   BACKBONE|DICT|INTERRES
   105   52  131 1    
   106   53   54 2    
   107   53   55 1    
   108   55   56 1    
   109   55   59 1    
   110   55  132 1    
   111   56   57 1    
   112   56  133 1    
   113   56  134 1    
   114   57   58 1    
   115   58  135 1    
   116   58  136 1    
   117   59   60 am   BACKBONE|DICT|INTERRES
   118   59  137 1    
   119   60   61 2    
   120   60   62 1    
   121   62   63 1    
   122   62   64 1    
   123   62  138 1    
   124   63  139 1    
   125   63  140 1    
   126   63  141 1    
   127   64   65 am   BACKBONE|DICT|INTERRES
   128   64  142 1    
   129   65   66 2    
   130   65   67 1    
   131   67   68 1    
   132   67   69 1    
   133   67  143 1    
   134   68  144 1    
   135   68  145 1    
   136   68  146 1    
   137   69   70 am   BACKBONE|DICT|INTERRES
   138   69  147 1    
   139   70   71 2    
   140   70   72 1    
   141   72   73 1    
   142   72   74 1    
   143   72  148 1    
   144   73  149 1    
   145   73  150 1    
   146   73  151 1    
   147   74   75 am   BACKBONE|DICT|INTERRES
   148   74  152 1    
   149   75   76 2    
   150   75   77 1    
   151   77   78 1    
   152   77   79 1    
   153   77  153 1    
   154   78  154 1    
   155   78  155 1    
   156   78  156 1    
   157   79   80 am   BACKBONE|DICT|INTERRES
   158   79  157 1    
   159   80   81 2    
@<TRIPOS>SUBSTRUCTURE
     1 UNK         1 GROUP             0       ****    0 ROOT    
