@<TRIPOS>MOLECULE
3R207
157   159    1
SMALL
USER_CHARGES


@<TRIPOS>ATOM
      1 CA        -46.0349  -30.8457    8.2752 C.3       0 UNK        -0.1975 
      2 C         -46.9533  -29.8631    7.5651 C.2       0 UNK         0.4852 
      3 O         -46.5298  -29.2145    6.6071 O.2       0 UNK        -0.5216 
      4 N         -48.2023  -29.7481    8.0369 N.am      1 UNK        -0.4461 
      5 CA        -49.2597  -28.8571    7.5432 C.3       1 UNK         0.0864 
      6 C6        -50.5311  -28.9885    8.4140 C.3       14 UNK        -0.0898 
      7 S7        -51.4349  -30.5413    8.0975 S.3       14 UNK        -0.2598 
      8 C8        -52.4455  -30.1160    6.6347 C.3       14 UNK         0.0286 
      9 C9        -53.2466  -28.8375    6.8368 C.ar      14 UNK        -0.0844 
     10 C10       -52.8522  -27.6521    6.2058 C.ar      14 UNK        -0.0881 
     11 C11       -53.5268  -26.4555    6.4617 C.ar      14 UNK        -0.0643 
     12 C12       -54.6325  -26.4596    7.3159 C.ar      14 UNK        -0.0930 
     13 C13       -55.0289  -27.6353    7.9583 C.ar      14 UNK        -0.0827 
     14 C14       -54.3398  -28.8246    7.7075 C.ar      14 UNK        -0.1249 
     15 C15       -56.1551  -27.5989    8.9764 C.3       14 UNK         0.0141 
     16 S16       -55.5858  -26.7621   10.4856 S.3       14 UNK        -0.2313 
     17 C17       -56.9571  -27.0776   11.6381 C.3       14 UNK        -0.0915 
     18 CA        -56.5928  -28.0712   12.7735 C.3       13 UNK         0.0968 
     19 C         -56.4832  -29.5469   12.2857 C.2       13 UNK         0.5732 
     20 N         -55.4389  -30.2958   12.6206 N.am      13 UNK        -0.7310 
     21 O         -57.3803  -30.0340   11.6015 O.2       13 UNK        -0.5035 
     22 N         -55.4436  -27.6011   13.5672 N.am      13 UNK        -0.4233 
     23 C         -55.3197  -27.7827   14.8868 C.2       13 UNK         0.4989 
     24 O         -56.1939  -28.3030   15.5840 O.2       13 UNK        -0.4996 
     25 CA        -54.0055  -27.3064   15.5406 C.3       12 UNK         0.0216 
     26 CB        -53.8546  -27.8252   16.9868 C.3       12 UNK        -0.1964 
     27 N         -52.7830  -27.6125   14.7843 N.am      12 UNK        -0.4276 
     28 C         -52.3848  -28.8066   14.3192 C.2       12 UNK         0.5020 
     29 O         -53.1051  -29.8054   14.2989 O.2       12 UNK        -0.5489 
     30 CA        -50.9292  -28.9431   13.8417 C.3       11 UNK         0.0294 
     31 CB        -50.7760  -28.6485   12.3415 C.3       11 UNK        -0.2019 
     32 N         -50.0030  -28.1094   14.6172 N.am      11 UNK        -0.4493 
     33 C         -48.8932  -28.5618   15.2196 C.2       11 UNK         0.4932 
     34 O         -48.4939  -29.7237   15.1326 O.2       11 UNK        -0.5029 
     35 CA        -48.0785  -27.5703   16.0761 C.3       10 UNK         0.0280 
     36 CB        -46.8492  -27.0609   15.3077 C.3       10 UNK        -0.1976 
     37 N         -48.8560  -26.4273   16.5601 N.am      10 UNK        -0.4242 
     38 C         -49.8217  -26.5030   17.4860 C.2       10 UNK         0.5072 
     39 O         -50.1002  -27.5372   18.0941 O.2       10 UNK        -0.5224 
     40 CA        -50.6270  -25.2240   17.7930 C.3       9 UNK         0.0343 
     41 CB        -50.1494  -24.6045   19.1170 C.3       9 UNK        -0.2003 
     42 N         -50.6386  -24.1784   16.7594 N.am      9 UNK        -0.4272 
     43 C         -50.9754  -24.3232   15.4703 C.2       9 UNK         0.4988 
     44 O         -51.1453  -25.4134   14.9191 O.2       9 UNK        -0.5108 
     45 CA        -51.1071  -23.0199   14.6626 C.3       8 UNK         0.0248 
     46 CB        -49.7280  -22.5597   14.1743 C.3       8 UNK        -0.2001 
     47 N         -51.9979  -23.1634   13.5083 N.am      8 UNK        -0.4140 
     48 C         -53.3088  -23.4402   13.5811 C.2       8 UNK         0.5028 
     49 O         -53.9309  -23.5180   14.6421 O.2       8 UNK        -0.5428 
     50 CA        -54.0748  -23.6539   12.2616 C.3       7 UNK         0.0264 
     51 CB        -55.0411  -22.4877   11.9967 C.3       7 UNK        -0.1988 
     52 N         -53.2177  -23.8335   11.0869 N.am      7 UNK        -0.4454 
     53 C         -52.4795  -24.9246   10.8350 C.2       7 UNK         0.5027 
     54 O         -52.4334  -25.8942   11.5904 O.2       7 UNK        -0.5083 
     55 CA        -51.6696  -24.9460    9.5186 C.3       6 UNK         0.0844 
     56 C56       -52.3002  -24.0810    8.3882 C.3       14 UNK        -0.0967 
     57 S57       -51.5958  -24.4792    6.7492 S.3       14 UNK        -0.2604 
     58 C58       -53.0350  -25.1520    5.8499 C.3       14 UNK         0.0134 
     59 N         -50.2527  -24.6256    9.7361 N.am      6 UNK        -0.4116 
     60 C         -49.7527  -23.5055   10.2817 C.2       5 UNK         0.5034 
     61 O         -50.4437  -22.6381   10.8211 O.2       5 UNK        -0.5045 
     62 CA        -48.2304  -23.2909   10.1484 C.3       5 UNK         0.0224 
     63 CB        -47.6642  -22.1991   11.0813 C.3       5 UNK        -0.1978 
     64 N         -47.4381  -24.5201   10.2415 N.am      5 UNK        -0.4737 
     65 C         -47.3552  -25.3719   11.2759 C.2       4 UNK         0.5027 
     66 O         -47.9466  -25.2082   12.3410 O.2       4 UNK        -0.5211 
     67 CA        -46.4714  -26.6236   11.0941 C.3       4 UNK         0.0297 
     68 CB        -47.2501  -27.9073   11.4305 C.3       4 UNK        -0.1993 
     69 N         -45.9650  -26.7336    9.7245 N.am      4 UNK        -0.4486 
     70 C         -44.7545  -26.3412    9.3046 C.2       3 UNK         0.4961 
     71 O         -43.8668  -25.9380   10.0558 O.2       3 UNK        -0.5105 
     72 CA        -44.4919  -26.3765    7.7858 C.3       3 UNK         0.0299 
     73 CB        -43.6131  -27.5809    7.4125 C.3       3 UNK        -0.1972 
     74 N         -45.7235  -26.3990    6.9874 N.am      3 UNK        -0.4305 
     75 C         -46.5352  -25.3412    6.8278 C.2       2 UNK         0.5006 
     76 O         -46.2997  -24.2283    7.2976 O.2       2 UNK        -0.5106 
     77 CA        -47.8648  -25.5692    6.0852 C.3       2 UNK         0.0296 
     78 CB        -47.6967  -25.3186    4.5788 C.3       2 UNK        -0.2002 
     79 N         -48.4334  -26.9028    6.3006 N.am      2 UNK        -0.4032 
     80 C         -48.7956  -27.3890    7.4958 C.2       1 UNK         0.5000 
     81 O         -48.7283  -26.7422    8.5420 O.2       1 UNK        -0.5238 
     82 H82       -46.5895  -31.5220    8.9254 H         1 UNK         0.0889 
     83 H83       -45.3081  -30.3084    8.8836 H         1 UNK         0.0889 
     84 H84       -45.4930  -31.4481    7.5466 H         1 UNK         0.0889 
     85 H85       -48.4756  -30.3245    8.8198 H         1 UNK         0.3028 
     86 H86       -49.5006  -29.1628    6.5233 H         1 UNK         0.0864 
     87 H87       -50.2674  -28.9595    9.4720 H         1 UNK         0.0720 
     88 H88       -51.2040  -28.1430    8.2795 H         1 UNK         0.0720 
     89 H89       -53.1272  -30.9410    6.4232 H         1 UNK         0.0814 
     90 H90       -51.7949  -30.0297    5.7633 H         1 UNK         0.0814 
     91 H91       -51.9904  -27.6470    5.5526 H         1 UNK         0.1469 
     92 H92       -55.1587  -25.5382    7.5240 H         1 UNK         0.1381 
     93 H93       -54.6250  -29.7331    8.2207 H         1 UNK         0.1206 
     94 H94       -56.4883  -28.6091    9.2195 H         1 UNK         0.0813 
     95 H95       -57.0165  -27.0713    8.5645 H         1 UNK         0.0813 
     96 H96       -57.8373  -27.4150   11.0880 H         1 UNK         0.0638 
     97 H97       -57.2392  -26.1192   12.0764 H         1 UNK         0.0638 
     98 H98       -57.4640  -28.0802   13.4308 H         1 UNK         0.0568 
     99 H99       -55.4009  -31.2480   12.2960 H         1 UNK         0.3450 
    100 H100      -54.6967  -29.9429   13.2180 H         1 UNK         0.3450 
    101 H101      -54.6737  -27.2073   13.0441 H         1 UNK         0.2987 
    102 H102      -54.0665  -26.2179   15.5845 H         1 UNK         0.0766 
    103 H103      -54.6756  -27.4815   17.6172 H         1 UNK         0.0798 
    104 H104      -52.9297  -27.4759   17.4430 H         1 UNK         0.0798 
    105 H105      -53.8484  -28.9154   17.0218 H         1 UNK         0.0798 
    106 H106      -52.1438  -26.8221   14.6936 H         1 UNK         0.3198 
    107 H107      -50.6854  -29.9978   13.9872 H         1 UNK         0.0843 
    108 H108      -50.6447  -27.5846   12.1480 H         1 UNK         0.0831 
    109 H109      -51.6419  -28.9876   11.7704 H         1 UNK         0.0831 
    110 H110      -49.9049  -29.1644   11.9402 H         1 UNK         0.0831 
    111 H111      -50.2589  -27.1336   14.7410 H         1 UNK         0.3133 
    112 H112      -47.7194  -28.1223   16.9474 H         1 UNK         0.0566 
    113 H113      -46.1961  -26.4707   15.9507 H         1 UNK         0.0814 
    114 H114      -47.1342  -26.4392   14.4604 H         1 UNK         0.0814 
    115 H115      -46.2565  -27.8904   14.9193 H         1 UNK         0.0814 
    116 H116      -48.7039  -25.5413   16.1006 H         1 UNK         0.3091 
    117 H117      -51.6644  -25.5347   17.9259 H         1 UNK         0.0702 
    118 H118      -50.7945  -23.7828   19.4287 H         1 UNK         0.0785 
    119 H119      -49.1306  -24.2228   19.0381 H         1 UNK         0.0785 
    120 H120      -50.1596  -25.3413   19.9218 H         1 UNK         0.0785 
    121 H121      -50.4808  -23.2391   17.0960 H         1 UNK         0.2998 
    122 H122      -51.5281  -22.2487   15.3109 H         1 UNK         0.0697 
    123 H123      -49.7952  -21.6443   13.5858 H         1 UNK         0.0825 
    124 H124      -49.2640  -23.3250   13.5536 H         1 UNK         0.0825 
    125 H125      -49.0541  -22.3622   15.0087 H         1 UNK         0.0825 
    126 H126      -51.5647  -23.1235   12.5927 H         1 UNK         0.3029 
    127 H127      -54.6673  -24.5623   12.3880 H         1 UNK         0.0897 
    128 H128      -54.5085  -21.5476   11.8484 H         1 UNK         0.0792 
    129 H129      -55.7234  -22.3469   12.8363 H         1 UNK         0.0792 
    130 H130      -55.6535  -22.6731   11.1138 H         1 UNK         0.0792 
    131 H131      -53.1568  -23.0524   10.4504 H         1 UNK         0.3086 
    132 H132      -51.6933  -25.9847    9.1861 H         1 UNK         0.0583 
    133 H133      -53.3814  -24.2145    8.3506 H         1 UNK         0.1020 
    134 H134      -52.1395  -23.0176    8.5728 H         1 UNK         0.1020 
    135 H135      -53.8322  -24.4072    5.8311 H         1 UNK         0.0694 
    136 H136      -52.7524  -25.3221    4.8100 H         1 UNK         0.0694 
    137 H137      -49.5993  -25.3101    9.3615 H         1 UNK         0.2989 
    138 H138      -48.0939  -22.9315    9.1270 H         1 UNK         0.1055 
    139 H139      -47.6818  -22.5026   12.1262 H         1 UNK         0.0806 
    140 H140      -48.2301  -21.2704   10.9988 H         1 UNK         0.0806 
    141 H141      -46.6307  -21.9663   10.8254 H         1 UNK         0.0806 
    142 H142      -46.9176  -24.7517    9.4051 H         1 UNK         0.3061 
    143 H143      -45.6405  -26.5357   11.7970 H         1 UNK         0.0734 
    144 H144      -48.1085  -28.0392   10.7725 H         1 UNK         0.0832 
    145 H145      -46.6184  -28.7908   11.3404 H         1 UNK         0.0832 
    146 H146      -47.6276  -27.8835   12.4529 H         1 UNK         0.0832 
    147 H147      -46.6567  -26.9970    9.0334 H         1 UNK         0.3156 
    148 H148      -43.9396  -25.4694    7.5307 H         1 UNK         0.0589 
    149 H149      -44.0921  -28.5270    7.6619 H         1 UNK         0.0808 
    150 H150      -42.6621  -27.5488    7.9460 H         1 UNK         0.0808 
    151 H151      -43.3853  -27.5913    6.3465 H         1 UNK         0.0808 
    152 H152      -46.0048  -27.3009    6.6100 H         1 UNK         0.3098 
    153 H153      -48.5800  -24.8412    6.4734 H         1 UNK         0.0720 
    154 H154      -48.6526  -25.3810    4.0581 H         1 UNK         0.0791 
    155 H155      -47.0154  -26.0378    4.1221 H         1 UNK         0.0791 
    156 H156      -47.2931  -24.3223    4.3922 H         1 UNK         0.0791 
    157 H157      -48.4676  -27.5138    5.4970 H         1 UNK         0.3028 
@<TRIPOS>BOND
     1    1    2 1    
     2    1   82 1    
     3    1   83 1    
     4    1   84 1    
     5    2    3 2    
     6    2    4 am   BACKBONE|DICT|INTERRES
     7    4    5 1    
     8    4   85 1    
     9    5    6 1    
    10    5   80 1    
    11    5   86 1    
    12    6    7 1    
    13    6   87 1    
    14    6   88 1    
    15    7    8 1    
    16    8    9 1    
    17    8   89 1    
    18    8   90 1    
    19    9   10 ar   
    20    9   14 ar   
    21   10   11 ar   
    22   10   91 1    
    23   11   12 ar   
    24   11   58 1    
    25   12   13 ar   
    26   12   92 1    
    27   13   14 ar   
    28   13   15 1    
    29   14   93 1    
    30   15   16 1    
    31   15   94 1    
    32   15   95 1    
    33   16   17 1    
    34   17   18 1    
    35   17   96 1    
    36   17   97 1    
    37   18   19 1    
    38   18   22 1    
    39   18   98 1    
    40   19   20 am   BACKBONE|DICT|INTERRES
    41   19   21 2    
    42   20   99 1    
    43   20  100 1    
    44   22   23 am   BACKBONE|DICT|INTERRES
    45   22  101 1    
    46   23   24 2    
    47   23   25 1    
    48   25   26 1    
    49   25   27 1    
    50   25  102 1    
    51   26  103 1    
    52   26  104 1    
    53   26  105 1    
    54   27   28 am   BACKBONE|DICT|INTERRES
    55   27  106 1    
    56   28   29 2    
    57   28   30 1    
    58   30   31 1    
    59   30   32 1    
    60   30  107 1    
    61   31  108 1    
    62   31  109 1    
    63   31  110 1    
    64   32   33 am   BACKBONE|DICT|INTERRES
    65   32  111 1    
    66   33   34 2    
    67   33   35 1    
    68   35   36 1    
    69   35   37 1    
    70   35  112 1    
    71   36  113 1    
    72   36  114 1    
    73   36  115 1    
    74   37   38 am   BACKBONE|DICT|INTERRES
    75   37  116 1    
    76   38   39 2    
    77   38   40 1    
    78   40   41 1    
    79   40   42 1    
    80   40  117 1    
    81   41  118 1    
    82   41  119 1    
    83   41  120 1    
    84   42   43 am   BACKBONE|DICT|INTERRES
    85   42  121 1    
    86   43   44 2    
    87   43   45 1    
    88   45   46 1    
    89   45   47 1    
    90   45  122 1    
    91   46  123 1    
    92   46  124 1    
    93   46  125 1    
    94   47   48 am   BACKBONE|DICT|INTERRES
    95   47  126 1    
    96   48   49 2    
    97   48   50 1    
    98   50   51 1    
    99   50   52 1    
   100   50  127 1    
   101   51  128 1    
   102   51  129 1    
   103   51  130 1    
   104   52   53 am   BACKBONE|DICT|INTERRES
   105   52  131 1    
   106   53   54 2    
   107   53   55 1    
   108   55   56 1    
   109   55   59 1    
   110   55  132 1    
   111   56   57 1    
   112   56  133 1    
   113   56  134 1    
   114   57   58 1    
   115   58  135 1    
   116   58  136 1    
   117   59   60 am   BACKBONE|DICT|INTERRES
   118   59  137 1    
   119   60   61 2    
   120   60   62 1    
   121   62   63 1    
   122   62   64 1    
   123   62  138 1    
   124   63  139 1    
   125   63  140 1    
   126   63  141 1    
   127   64   65 am   BACKBONE|DICT|INTERRES
   128   64  142 1    
   129   65   66 2    
   130   65   67 1    
   131   67   68 1    
   132   67   69 1    
   133   67  143 1    
   134   68  144 1    
   135   68  145 1    
   136   68  146 1    
   137   69   70 am   BACKBONE|DICT|INTERRES
   138   69  147 1    
   139   70   71 2    
   140   70   72 1    
   141   72   73 1    
   142   72   74 1    
   143   72  148 1    
   144   73  149 1    
   145   73  150 1    
   146   73  151 1    
   147   74   75 am   BACKBONE|DICT|INTERRES
   148   74  152 1    
   149   75   76 2    
   150   75   77 1    
   151   77   78 1    
   152   77   79 1    
   153   77  153 1    
   154   78  154 1    
   155   78  155 1    
   156   78  156 1    
   157   79   80 am   BACKBONE|DICT|INTERRES
   158   79  157 1    
   159   80   81 2    
@<TRIPOS>SUBSTRUCTURE
     1 UNK         1 GROUP             0       ****    0 ROOT    
