@<TRIPOS>MOLECULE
3R207
157   159    1
SMALL
USER_CHARGES


@<TRIPOS>ATOM
      1 CA        -44.2419  -29.5635    7.5237 C.3       0 UNK        -0.1975 
      2 C         -45.0123  -29.4442    6.2172 C.2       0 UNK         0.4852 
      3 O         -44.4335  -29.0580    5.2013 O.2       0 UNK        -0.5216 
      4 N         -46.3097  -29.7815    6.2345 N.am      1 UNK        -0.4461 
      5 CA        -47.2103  -29.7353    5.0748 C.3       1 UNK         0.0864 
      6 C6        -48.5262  -30.5102    5.3327 C.3       14 UNK        -0.0898 
      7 S7        -49.4385  -29.9721    6.8229 S.3       14 UNK        -0.2598 
      8 C8        -50.8553  -29.1152    6.0668 C.3       14 UNK         0.0286 
      9 C9        -51.9214  -28.7475    7.0900 C.ar      14 UNK        -0.0844 
     10 C10       -52.3209  -27.4178    7.2537 C.ar      14 UNK        -0.0881 
     11 C11       -53.3575  -27.0942    8.1349 C.ar      14 UNK        -0.0643 
     12 C12       -53.9791  -28.1086    8.8683 C.ar      14 UNK        -0.0930 
     13 C13       -53.5790  -29.4457    8.7322 C.ar      14 UNK        -0.0827 
     14 C14       -52.5525  -29.7495    7.8336 C.ar      14 UNK        -0.1249 
     15 C15       -54.2177  -30.6037    9.5067 C.3       14 UNK         0.0141 
     16 S16       -55.7139  -30.1998   10.4722 S.3       14 UNK        -0.2313 
     17 C17       -54.9963  -29.3520   11.9194 C.3       14 UNK        -0.0915 
     18 CA        -55.6149  -29.8368   13.2596 C.3       13 UNK         0.0968 
     19 C         -54.8762  -31.0699   13.8595 C.2       13 UNK         0.5732 
     20 N         -54.4002  -31.0216   15.0986 N.am      13 UNK        -0.7310 
     21 O         -54.7435  -32.0957   13.1973 O.2       13 UNK        -0.5035 
     22 N         -55.7561  -28.7061   14.1862 N.am      13 UNK        -0.4233 
     23 C         -56.7498  -28.5382   15.0669 C.2       13 UNK         0.4989 
     24 O         -57.6646  -29.3456   15.2344 O.2       13 UNK        -0.4996 
     25 CA        -56.7277  -27.2461   15.9014 C.3       12 UNK         0.0216 
     26 CB        -56.3615  -27.5506   17.3637 C.3       12 UNK        -0.1964 
     27 N         -55.7903  -26.2527   15.3677 N.am      12 UNK        -0.4276 
     28 C         -56.0769  -25.3651   14.4020 C.2       12 UNK         0.5020 
     29 O         -57.1846  -25.2910   13.8676 O.2       12 UNK        -0.5489 
     30 CA        -54.9490  -24.4187   13.9263 C.3       11 UNK         0.0294 
     31 CB        -55.4575  -22.9860   13.6640 C.3       11 UNK        -0.2019 
     32 N         -53.7641  -24.4030   14.7936 N.am      11 UNK        -0.4493 
     33 C         -53.6998  -24.0554   16.0889 C.2       11 UNK         0.4932 
     34 O         -54.6382  -23.5545   16.7099 O.2       11 UNK        -0.5029 
     35 CA        -52.3835  -24.3705   16.8282 C.3       10 UNK         0.0280 
     36 CB        -52.6046  -24.6253   18.3341 C.3       10 UNK        -0.1976 
     37 N         -51.6126  -25.4748   16.2380 N.am      10 UNK        -0.4242 
     38 C         -52.0093  -26.7432   16.0335 C.2       10 UNK         0.5072 
     39 O         -53.1452  -27.1436   16.2951 O.2       10 UNK        -0.5224 
     40 CA        -51.0103  -27.7298   15.3904 C.3       9 UNK         0.0343 
     41 CB        -51.6325  -28.4121   14.1583 C.3       9 UNK        -0.2003 
     42 N         -49.7435  -27.1110   14.9932 N.am      9 UNK        -0.4272 
     43 C         -48.7273  -26.8137   15.8145 C.2       9 UNK         0.4988 
     44 O         -48.6952  -27.1227   17.0056 O.2       9 UNK        -0.5108 
     45 CA        -47.5810  -25.9740   15.2182 C.3       8 UNK         0.0248 
     46 CB        -46.5218  -26.8798   14.5716 C.3       8 UNK        -0.2001 
     47 N         -48.0479  -24.9716   14.2498 N.am      8 UNK        -0.4140 
     48 C         -48.8790  -23.9621   14.5535 C.2       8 UNK         0.5028 
     49 O         -49.2792  -23.7345   15.6946 O.2       8 UNK        -0.5428 
     50 CA        -49.4021  -23.0925   13.3994 C.3       7 UNK         0.0264 
     51 CB        -48.3741  -22.0181   13.0125 C.3       7 UNK        -0.1988 
     52 N         -49.7724  -23.8739   12.2188 N.am      7 UNK        -0.4454 
     53 C         -50.7668  -24.7733   12.1644 C.2       7 UNK         0.5027 
     54 O         -51.5267  -25.0109   13.1045 O.2       7 UNK        -0.5083 
     55 CA        -50.8947  -25.5789   10.8517 C.3       6 UNK         0.0844 
     56 C56       -51.6186  -24.7671    9.7493 C.3       14 UNK        -0.0967 
     57 S57       -53.4308  -24.9143    9.8731 S.3       14 UNK        -0.2604 
     58 C58       -53.8472  -25.6572    8.2629 C.3       14 UNK         0.0134 
     59 N         -49.5936  -26.0751   10.3953 N.am      6 UNK        -0.4116 
     60 C         -48.8042  -26.9069   11.0893 C.2       5 UNK         0.5034 
     61 O         -49.1191  -27.4237   12.1599 O.2       5 UNK        -0.5045 
     62 CA        -47.3985  -27.1509   10.5231 C.3       5 UNK         0.0224 
     63 CB        -47.4102  -28.3000    9.5060 C.3       5 UNK        -0.1978 
     64 N         -46.8479  -25.9399    9.9084 N.am      5 UNK        -0.4737 
     65 C         -46.4130  -24.8817   10.6077 C.2       4 UNK         0.5027 
     66 O         -46.3795  -24.8482   11.8371 O.2       4 UNK        -0.5211 
     67 CA        -45.9891  -23.6383    9.8054 C.3       4 UNK         0.0297 
     68 CB        -44.5286  -23.7683    9.3456 C.3       4 UNK        -0.1993 
     69 N         -46.8483  -23.3841    8.6452 N.am      4 UNK        -0.4486 
     70 C         -48.1543  -23.0884    8.7160 C.2       3 UNK         0.4961 
     71 O         -48.7582  -22.9280    9.7745 O.2       3 UNK        -0.5105 
     72 CA        -48.9389  -23.0113    7.3929 C.3       3 UNK         0.0299 
     73 CB        -48.9958  -21.5605    6.8907 C.3       3 UNK        -0.1972 
     74 N         -48.4223  -23.8792    6.3274 N.am      3 UNK        -0.4305 
     75 C         -48.2572  -25.2065    6.4172 C.2       2 UNK         0.5006 
     76 O         -48.5222  -25.8614    7.4297 O.2       2 UNK        -0.5106 
     77 CA        -47.6528  -25.9007    5.1897 C.3       2 UNK         0.0296 
     78 CB        -46.2755  -25.3106    4.8209 C.3       2 UNK        -0.2002 
     79 N         -47.5059  -27.3256    5.4679 N.am      2 UNK        -0.4032 
     80 C         -47.4724  -28.3041    4.5558 C.2       1 UNK         0.5000 
     81 O         -47.6169  -28.1171    3.3458 O.2       1 UNK        -0.5238 
     82 H82       -43.2898  -30.0655    7.3536 H         1 UNK         0.0889 
     83 H83       -44.7922  -30.1366    8.2696 H         1 UNK         0.0889 
     84 H84       -44.0368  -28.5738    7.9309 H         1 UNK         0.0889 
     85 H85       -46.7341  -30.1036    7.0930 H         1 UNK         0.3028 
     86 H86       -46.6944  -30.2533    4.2631 H         1 UNK         0.0864 
     87 H87       -49.1755  -30.4675    4.4561 H         1 UNK         0.0720 
     88 H88       -48.2949  -31.5685    5.4632 H         1 UNK         0.0720 
     89 H89       -51.3099  -29.7594    5.3128 H         1 UNK         0.0814 
     90 H90       -50.4949  -28.2281    5.5437 H         1 UNK         0.0814 
     91 H91       -51.8448  -26.6382    6.6747 H         1 UNK         0.1469 
     92 H92       -54.7823  -27.8349    9.5350 H         1 UNK         0.1381 
     93 H93       -52.2443  -30.7782    7.7028 H         1 UNK         0.1206 
     94 H94       -53.4734  -31.0477   10.1694 H         1 UNK         0.0813 
     95 H95       -54.4922  -31.3829    8.7942 H         1 UNK         0.0813 
     96 H96       -53.9085  -29.4448   11.9251 H         1 UNK         0.0638 
     97 H97       -55.1958  -28.2890   11.7740 H         1 UNK         0.0638 
     98 H98       -56.6253  -30.1914   13.0476 H         1 UNK         0.0568 
     99 H99       -53.9320  -31.8297   15.4765 H         1 UNK         0.3450 
    100 H100      -54.5120  -30.1932   15.6598 H         1 UNK         0.3450 
    101 H101      -55.0319  -28.0056   14.1498 H         1 UNK         0.2987 
    102 H102      -57.7367  -26.8286   15.8861 H         1 UNK         0.0766 
    103 H103      -56.3538  -26.6428   17.9674 H         1 UNK         0.0798 
    104 H104      -55.3797  -28.0172   17.4492 H         1 UNK         0.0798 
    105 H105      -57.0850  -28.2322   17.8130 H         1 UNK         0.0798 
    106 H106      -54.8461  -26.2828   15.7447 H         1 UNK         0.3198 
    107 H107      -54.6072  -24.8234   12.9721 H         1 UNK         0.0843 
    108 H108      -55.8787  -22.5338   14.5621 H         1 UNK         0.0831 
    109 H109      -56.2381  -22.9812   12.9024 H         1 UNK         0.0831 
    110 H110      -54.6553  -22.3409   13.3057 H         1 UNK         0.0831 
    111 H111      -52.9138  -24.7579   14.3571 H         1 UNK         0.3133 
    112 H112      -51.7641  -23.4785   16.7303 H         1 UNK         0.0566 
    113 H113      -51.6631  -24.8316   18.8431 H         1 UNK         0.0814 
    114 H114      -53.0487  -23.7558   18.8201 H         1 UNK         0.0814 
    115 H115      -53.2717  -25.4709   18.5062 H         1 UNK         0.0814 
    116 H116      -50.6748  -25.2168   15.9500 H         1 UNK         0.3091 
    117 H117      -50.8015  -28.5012   16.1342 H         1 UNK         0.0702 
    118 H118      -52.5372  -28.9575   14.4253 H         1 UNK         0.0785 
    119 H119      -51.9013  -27.6890   13.3879 H         1 UNK         0.0785 
    120 H120      -50.9442  -29.1311   13.7136 H         1 UNK         0.0785 
    121 H121      -49.6475  -26.8844   14.0077 H         1 UNK         0.2998 
    122 H122      -47.1064  -25.4346   16.0405 H         1 UNK         0.0697 
    123 H123      -46.9389  -27.4726   13.7582 H         1 UNK         0.0825 
    124 H124      -46.1095  -27.5772   15.3019 H         1 UNK         0.0825 
    125 H125      -45.6901  -26.2987   14.1726 H         1 UNK         0.0825 
    126 H126      -47.6943  -25.0482   13.3001 H         1 UNK         0.3029 
    127 H127      -50.3038  -22.5873   13.7525 H         1 UNK         0.0897 
    128 H128      -48.7674  -21.3526   12.2436 H         1 UNK         0.0792 
    129 H129      -47.4518  -22.4577   12.6323 H         1 UNK         0.0792 
    130 H130      -48.1117  -21.4012   13.8730 H         1 UNK         0.0792 
    131 H131      -49.2476  -23.6816   11.3670 H         1 UNK         0.3086 
    132 H132      -51.4879  -26.4695   11.0725 H         1 UNK         0.0583 
    133 H133      -51.3475  -23.7098    9.7739 H         1 UNK         0.1020 
    134 H134      -51.3100  -25.1185    8.7640 H         1 UNK         0.1020 
    135 H135      -54.9314  -25.6406    8.1424 H         1 UNK         0.0694 
    136 H136      -53.4450  -25.0336    7.4628 H         1 UNK         0.0694 
    137 H137      -49.2522  -25.7307    9.5067 H         1 UNK         0.2989 
    138 H138      -46.7492  -27.4408   11.3518 H         1 UNK         0.1055 
    139 H139      -47.7475  -29.2272    9.9714 H         1 UNK         0.0806 
    140 H140      -46.4139  -28.4793    9.1066 H         1 UNK         0.0806 
    141 H141      -48.0808  -28.0961    8.6725 H         1 UNK         0.0806 
    142 H142      -46.9316  -25.8605    8.9032 H         1 UNK         0.3061 
    143 H143      -46.0629  -22.7753   10.4706 H         1 UNK         0.0734 
    144 H144      -44.1856  -22.8601    8.8497 H         1 UNK         0.0832 
    145 H145      -43.8673  -23.9394   10.1963 H         1 UNK         0.0832 
    146 H146      -44.3922  -24.6016    8.6551 H         1 UNK         0.0832 
    147 H147      -46.4302  -23.4849    7.7322 H         1 UNK         0.3156 
    148 H148      -49.9596  -23.3351    7.6032 H         1 UNK         0.0589 
    149 H149      -48.0070  -21.1849    6.6245 H         1 UNK         0.0808 
    150 H150      -49.6390  -21.4670    6.0154 H         1 UNK         0.0808 
    151 H151      -49.4000  -20.8979    7.6577 H         1 UNK         0.0808 
    152 H152      -48.1808  -23.4232    5.4590 H         1 UNK         0.3098 
    153 H153      -48.3475  -25.7649    4.3583 H         1 UNK         0.0720 
    154 H154      -45.8410  -25.8270    3.9645 H         1 UNK         0.0791 
    155 H155      -45.5685  -25.3936    5.6475 H         1 UNK         0.0791 
    156 H156      -46.3449  -24.2569    4.5496 H         1 UNK         0.0791 
    157 H157      -47.4808  -27.5649    6.4501 H         1 UNK         0.3028 
@<TRIPOS>BOND
     1    1    2 1    
     2    1   82 1    
     3    1   83 1    
     4    1   84 1    
     5    2    3 2    
     6    2    4 am   BACKBONE|DICT|INTERRES
     7    4    5 1    
     8    4   85 1    
     9    5    6 1    
    10    5   80 1    
    11    5   86 1    
    12    6    7 1    
    13    6   87 1    
    14    6   88 1    
    15    7    8 1    
    16    8    9 1    
    17    8   89 1    
    18    8   90 1    
    19    9   10 ar   
    20    9   14 ar   
    21   10   11 ar   
    22   10   91 1    
    23   11   12 ar   
    24   11   58 1    
    25   12   13 ar   
    26   12   92 1    
    27   13   14 ar   
    28   13   15 1    
    29   14   93 1    
    30   15   16 1    
    31   15   94 1    
    32   15   95 1    
    33   16   17 1    
    34   17   18 1    
    35   17   96 1    
    36   17   97 1    
    37   18   19 1    
    38   18   22 1    
    39   18   98 1    
    40   19   20 am   BACKBONE|DICT|INTERRES
    41   19   21 2    
    42   20   99 1    
    43   20  100 1    
    44   22   23 am   BACKBONE|DICT|INTERRES
    45   22  101 1    
    46   23   24 2    
    47   23   25 1    
    48   25   26 1    
    49   25   27 1    
    50   25  102 1    
    51   26  103 1    
    52   26  104 1    
    53   26  105 1    
    54   27   28 am   BACKBONE|DICT|INTERRES
    55   27  106 1    
    56   28   29 2    
    57   28   30 1    
    58   30   31 1    
    59   30   32 1    
    60   30  107 1    
    61   31  108 1    
    62   31  109 1    
    63   31  110 1    
    64   32   33 am   BACKBONE|DICT|INTERRES
    65   32  111 1    
    66   33   34 2    
    67   33   35 1    
    68   35   36 1    
    69   35   37 1    
    70   35  112 1    
    71   36  113 1    
    72   36  114 1    
    73   36  115 1    
    74   37   38 am   BACKBONE|DICT|INTERRES
    75   37  116 1    
    76   38   39 2    
    77   38   40 1    
    78   40   41 1    
    79   40   42 1    
    80   40  117 1    
    81   41  118 1    
    82   41  119 1    
    83   41  120 1    
    84   42   43 am   BACKBONE|DICT|INTERRES
    85   42  121 1    
    86   43   44 2    
    87   43   45 1    
    88   45   46 1    
    89   45   47 1    
    90   45  122 1    
    91   46  123 1    
    92   46  124 1    
    93   46  125 1    
    94   47   48 am   BACKBONE|DICT|INTERRES
    95   47  126 1    
    96   48   49 2    
    97   48   50 1    
    98   50   51 1    
    99   50   52 1    
   100   50  127 1    
   101   51  128 1    
   102   51  129 1    
   103   51  130 1    
   104   52   53 am   BACKBONE|DICT|INTERRES
   105   52  131 1    
   106   53   54 2    
   107   53   55 1    
   108   55   56 1    
   109   55   59 1    
   110   55  132 1    
   111   56   57 1    
   112   56  133 1    
   113   56  134 1    
   114   57   58 1    
   115   58  135 1    
   116   58  136 1    
   117   59   60 am   BACKBONE|DICT|INTERRES
   118   59  137 1    
   119   60   61 2    
   120   60   62 1    
   121   62   63 1    
   122   62   64 1    
   123   62  138 1    
   124   63  139 1    
   125   63  140 1    
   126   63  141 1    
   127   64   65 am   BACKBONE|DICT|INTERRES
   128   64  142 1    
   129   65   66 2    
   130   65   67 1    
   131   67   68 1    
   132   67   69 1    
   133   67  143 1    
   134   68  144 1    
   135   68  145 1    
   136   68  146 1    
   137   69   70 am   BACKBONE|DICT|INTERRES
   138   69  147 1    
   139   70   71 2    
   140   70   72 1    
   141   72   73 1    
   142   72   74 1    
   143   72  148 1    
   144   73  149 1    
   145   73  150 1    
   146   73  151 1    
   147   74   75 am   BACKBONE|DICT|INTERRES
   148   74  152 1    
   149   75   76 2    
   150   75   77 1    
   151   77   78 1    
   152   77   79 1    
   153   77  153 1    
   154   78  154 1    
   155   78  155 1    
   156   78  156 1    
   157   79   80 am   BACKBONE|DICT|INTERRES
   158   79  157 1    
   159   80   81 2    
@<TRIPOS>SUBSTRUCTURE
     1 UNK         1 GROUP             0       ****    0 ROOT    
