@<TRIPOS>MOLECULE
3R207
157   159    1
SMALL
USER_CHARGES


@<TRIPOS>ATOM
      1 CA        -47.5270  -28.8279    7.8232 C.3       0 UNK        -0.1975 
      2 C         -47.7329  -28.3089    6.4093 C.2       0 UNK         0.4852 
      3 O         -46.7616  -27.9858    5.7241 O.2       0 UNK        -0.5216 
      4 N         -48.9939  -28.2246    5.9658 N.am      1 UNK        -0.4461 
      5 CA        -49.3912  -27.6785    4.6640 C.3       1 UNK         0.0864 
      6 C6        -50.8876  -27.9390    4.3389 C.3       14 UNK        -0.0898 
      7 S7        -52.0390  -27.5271    5.7004 S.3       14 UNK        -0.2598 
      8 C8        -52.6857  -29.1673    6.1617 C.3       14 UNK         0.0286 
      9 C9        -52.9355  -29.2474    7.6589 C.ar      14 UNK        -0.0844 
     10 C10       -51.9510  -29.7703    8.5022 C.ar      14 UNK        -0.0881 
     11 C11       -52.1537  -29.8217    9.8837 C.ar      14 UNK        -0.0643 
     12 C12       -53.3554  -29.3547   10.4202 C.ar      14 UNK        -0.0930 
     13 C13       -54.3588  -28.8538    9.5853 C.ar      14 UNK        -0.0827 
     14 C14       -54.1420  -28.7971    8.2048 C.ar      14 UNK        -0.1249 
     15 C15       -55.6638  -28.3480   10.1819 C.3       14 UNK         0.0141 
     16 S16       -57.0209  -29.5550   10.0416 S.3       14 UNK        -0.2313 
     17 C17       -56.5048  -30.8789   11.1892 C.3       14 UNK        -0.0915 
     18 CA        -57.3115  -30.8992   12.5228 C.3       13 UNK         0.0968 
     19 C         -57.0676  -32.2021   13.3478 C.2       13 UNK         0.5732 
     20 N         -57.0949  -32.1621   14.6750 N.am      13 UNK        -0.7310 
     21 O         -56.8884  -33.2782   12.7816 O.2       13 UNK        -0.5035 
     22 N         -57.1999  -29.6504   13.3043 N.am      13 UNK        -0.4233 
     23 C         -56.0796  -29.1509   13.8435 C.2       13 UNK         0.4989 
     24 O         -54.9627  -29.6594   13.7251 O.2       13 UNK        -0.4996 
     25 CA        -56.2428  -27.8854   14.6996 C.3       12 UNK         0.0216 
     26 CB        -56.3214  -28.2493   16.1912 C.3       12 UNK        -0.1964 
     27 N         -55.1157  -26.9783   14.4933 N.am      12 UNK        -0.4276 
     28 C         -55.0035  -26.1315   13.4610 C.2       12 UNK         0.5020 
     29 O         -55.8881  -25.9638   12.6195 O.2       12 UNK        -0.5489 
     30 CA        -53.6834  -25.3408   13.3579 C.3       11 UNK         0.0294 
     31 CB        -53.7752  -24.1160   12.4241 C.3       11 UNK        -0.2019 
     32 N         -53.1369  -24.9624   14.6661 N.am      11 UNK        -0.4493 
     33 C         -53.7346  -24.2216   15.6142 C.2       11 UNK         0.4932 
     34 O         -54.8291  -23.6767   15.4651 O.2       11 UNK        -0.5029 
     35 CA        -52.9932  -24.0530   16.9568 C.3       10 UNK         0.0280 
     36 CB        -53.9629  -24.0174   18.1576 C.3       10 UNK        -0.1976 
     37 N         -51.9181  -25.0270   17.1889 N.am      10 UNK        -0.4242 
     38 C         -52.0236  -26.3618   17.3054 C.2       10 UNK         0.5072 
     39 O         -53.0901  -26.9701   17.1974 O.2       10 UNK        -0.5224 
     40 CA        -50.7174  -27.1487   17.5405 C.3       9 UNK         0.0343 
     41 CB        -50.7720  -28.5520   16.9074 C.3       9 UNK        -0.2003 
     42 N         -49.5713  -26.4283   16.9834 N.am      9 UNK        -0.4272 
     43 C         -48.6206  -25.7904   17.6809 C.2       9 UNK         0.4988 
     44 O         -48.5382  -25.8175   18.9088 O.2       9 UNK        -0.5108 
     45 CA        -47.6027  -24.9504   16.8797 C.3       8 UNK         0.0248 
     46 CB        -46.3000  -25.7403   16.6774 C.3       8 UNK        -0.2001 
     47 N         -48.1019  -24.5040   15.5735 N.am      8 UNK        -0.4140 
     48 C         -49.1494  -23.6828   15.3915 C.2       8 UNK         0.5028 
     49 O         -49.7397  -23.1233   16.3154 O.2       8 UNK        -0.5428 
     50 CA        -49.6884  -23.5227   13.9553 C.3       7 UNK         0.0264 
     51 CB        -49.1435  -22.2361   13.3182 C.3       7 UNK        -0.1988 
     52 N         -49.3955  -24.6701   13.0854 N.am      7 UNK        -0.4454 
     53 C         -49.7863  -25.9332   13.3320 C.2       7 UNK         0.5027 
     54 O         -50.5490  -26.2214   14.2552 O.2       7 UNK        -0.5083 
     55 CA        -49.1942  -27.0807   12.4846 C.3       6 UNK         0.0844 
     56 C56       -50.2924  -27.8168   11.6830 C.3       14 UNK        -0.0967 
     57 S57       -49.6180  -29.2955   10.8520 S.3       14 UNK        -0.2604 
     58 C58       -51.0729  -30.3836   10.7936 C.3       14 UNK         0.0134 
     59 N         -48.0801  -26.6635   11.6300 N.am      6 UNK        -0.4116 
     60 C         -46.8776  -26.2489   12.0483 C.2       5 UNK         0.5034 
     61 O         -46.5493  -26.1812   13.2336 O.2       5 UNK        -0.5045 
     62 CA        -45.9023  -25.7715   10.9563 C.3       5 UNK         0.0224 
     63 CB        -44.9512  -26.9088   10.5509 C.3       5 UNK        -0.1978 
     64 N         -46.5542  -25.2334    9.7519 N.am      5 UNK        -0.4737 
     65 C         -47.4040  -24.1947    9.7260 C.2       4 UNK         0.5027 
     66 O         -47.7962  -23.6251   10.7447 O.2       4 UNK        -0.5211 
     67 CA        -47.9394  -23.7437    8.3516 C.3       4 UNK         0.0297 
     68 CB        -48.2323  -22.2293    8.3077 C.3       4 UNK        -0.1993 
     69 N         -47.1118  -24.1451    7.2056 N.am      4 UNK        -0.4486 
     70 C         -45.8396  -23.7935    6.9494 C.2       3 UNK         0.4961 
     71 O         -45.1553  -23.0954    7.6976 O.2       3 UNK        -0.5105 
     72 CA        -45.2082  -24.3134    5.6429 C.3       3 UNK         0.0299 
     73 CB        -44.2703  -25.4959    5.9356 C.3       3 UNK        -0.1972 
     74 N         -46.1994  -24.7124    4.6392 N.am      3 UNK        -0.4305 
     75 C         -46.9600  -23.8503    3.9458 C.2       2 UNK         0.5006 
     76 O         -46.8284  -22.6272    4.0081 O.2       2 UNK        -0.5106 
     77 CA        -48.0676  -24.4300    3.0420 C.3       2 UNK         0.0296 
     78 CB        -47.6318  -24.3868    1.5679 C.3       2 UNK        -0.2002 
     79 N         -48.4977  -25.7939    3.3744 N.am      2 UNK        -0.4032 
     80 C         -49.0190  -26.1847    4.5465 C.2       1 UNK         0.5000 
     81 O         -49.1746  -25.4315    5.5122 O.2       1 UNK        -0.5238 
     82 H82       -47.5171  -28.0004    8.5310 H         1 UNK         0.0889 
     83 H83       -46.5778  -29.3574    7.9009 H         1 UNK         0.0889 
     84 H84       -48.3194  -29.5186    8.1100 H         1 UNK         0.0889 
     85 H85       -49.7606  -28.4401    6.5864 H         1 UNK         0.3028 
     86 H86       -48.8038  -28.2155    3.9155 H         1 UNK         0.0864 
     87 H87       -51.1938  -27.3814    3.4515 H         1 UNK         0.0720 
     88 H88       -51.0139  -28.9871    4.0653 H         1 UNK         0.0720 
     89 H89       -51.9870  -29.9523    5.8692 H         1 UNK         0.0814 
     90 H90       -53.6085  -29.3592    5.6120 H         1 UNK         0.0814 
     91 H91       -51.0177  -30.1272    8.0892 H         1 UNK         0.1469 
     92 H92       -53.5134  -29.3880   11.4897 H         1 UNK         0.1381 
     93 H93       -54.9093  -28.3957    7.5567 H         1 UNK         0.1206 
     94 H94       -55.9586  -27.4231    9.6841 H         1 UNK         0.0813 
     95 H95       -55.5227  -28.0944   11.2299 H         1 UNK         0.0813 
     96 H96       -55.4361  -30.8210   11.3872 H         1 UNK         0.0638 
     97 H97       -56.6482  -31.8149   10.6470 H         1 UNK         0.0638 
     98 H98       -58.3648  -30.9622   12.2481 H         1 UNK         0.0568 
     99 H99       -56.9490  -33.0127   15.1951 H         1 UNK         0.3450 
    100 H100      -57.2558  -31.2948   15.1595 H         1 UNK         0.3450 
    101 H101      -58.0726  -29.1695   13.4682 H         1 UNK         0.2987 
    102 H102      -57.1662  -27.3742   14.4181 H         1 UNK         0.0766 
    103 H103      -56.4359  -27.3587   16.8100 H         1 UNK         0.0798 
    104 H104      -55.4246  -28.7728   16.5268 H         1 UNK         0.0798 
    105 H105      -57.1751  -28.8969   16.3942 H         1 UNK         0.0798 
    106 H106      -54.3448  -27.0596   15.1448 H         1 UNK         0.3198 
    107 H107      -52.9642  -26.0317   12.9159 H         1 UNK         0.0843 
    108 H108      -52.8164  -23.6036   12.3462 H         1 UNK         0.0831 
    109 H109      -54.5154  -23.3957   12.7735 H         1 UNK         0.0831 
    110 H110      -54.0640  -24.4146   11.4157 H         1 UNK         0.0831 
    111 H111      -52.2327  -25.3738   14.8782 H         1 UNK         0.3133 
    112 H112      -52.5036  -23.0798   16.9032 H         1 UNK         0.0566 
    113 H113      -53.4272  -23.8828   19.0972 H         1 UNK         0.0814 
    114 H114      -54.6682  -23.1901   18.0693 H         1 UNK         0.0814 
    115 H115      -54.5480  -24.9346   18.2324 H         1 UNK         0.0814 
    116 H116      -50.9909  -24.6192   17.2366 H         1 UNK         0.3091 
    117 H117      -50.6060  -27.2653   18.6201 H         1 UNK         0.0702 
    118 H118      -49.8403  -29.0948   17.0672 H         1 UNK         0.0785 
    119 H119      -50.9511  -28.5021   15.8325 H         1 UNK         0.0785 
    120 H120      -51.5722  -29.1504   17.3448 H         1 UNK         0.0785 
    121 H121      -49.5908  -26.3227   15.9744 H         1 UNK         0.2998 
    122 H122      -47.3769  -24.0601   17.4702 H         1 UNK         0.0697 
    123 H123      -45.5426  -25.1369   16.1766 H         1 UNK         0.0825 
    124 H124      -45.8813  -26.0565   17.6338 H         1 UNK         0.0825 
    125 H125      -46.4614  -26.6379   16.0786 H         1 UNK         0.0825 
    126 H126      -47.6655  -24.9199   14.7589 H         1 UNK         0.3029 
    127 H127      -50.7738  -23.4313   14.0257 H         1 UNK         0.0897 
    128 H128      -49.5819  -22.0643   12.3349 H         1 UNK         0.0792 
    129 H129      -49.3762  -21.3654   13.9329 H         1 UNK         0.0792 
    130 H130      -48.0598  -22.2730   13.1992 H         1 UNK         0.0792 
    131 H131      -48.7840  -24.4842   12.2950 H         1 UNK         0.3086 
    132 H132      -48.7860  -27.7923   13.2059 H         1 UNK         0.0583 
    133 H133      -51.1025  -28.1278   12.3463 H         1 UNK         0.1020 
    134 H134      -50.7420  -27.1623   10.9337 H         1 UNK         0.1020 
    135 H135      -50.7667  -31.3631   10.4237 H         1 UNK         0.0694 
    136 H136      -51.4507  -30.5420   11.8051 H         1 UNK         0.0694 
    137 H137      -48.2536  -26.6805   10.6368 H         1 UNK         0.2989 
    138 H138      -45.3087  -24.9646   11.3918 H         1 UNK         0.1055 
    139 H139      -44.4226  -27.3028   11.4203 H         1 UNK         0.0806 
    140 H140      -44.1953  -26.5632    9.8453 H         1 UNK         0.0806 
    141 H141      -45.4858  -27.7411   10.0916 H         1 UNK         0.0806 
    142 H142      -46.2760  -25.6302    8.8666 H         1 UNK         0.3061 
    143 H143      -48.8906  -24.2623    8.2224 H         1 UNK         0.0734 
    144 H144      -47.3352  -21.6386    8.4955 H         1 UNK         0.0832 
    145 H145      -48.6346  -21.9314    7.3394 H         1 UNK         0.0832 
    146 H146      -48.9684  -21.9490    9.0623 H         1 UNK         0.0832 
    147 H147      -47.6029  -24.7040    6.5126 H         1 UNK         0.3156 
    148 H148      -44.6073  -23.5031    5.2243 H         1 UNK         0.0589 
    149 H149      -43.7882  -25.8568    5.0269 H         1 UNK         0.0808 
    150 H150      -43.4783  -25.2021    6.6260 H         1 UNK         0.0808 
    151 H151      -44.8006  -26.3327    6.3903 H         1 UNK         0.0808 
    152 H152      -46.3679  -25.7044    4.5364 H         1 UNK         0.3098 
    153 H153      -48.9389  -23.7820    3.1577 H         1 UNK         0.0720 
    154 H154      -46.7799  -25.0415    1.3795 H         1 UNK         0.0791 
    155 H155      -47.3371  -23.3775    1.2762 H         1 UNK         0.0791 
    156 H156      -48.4423  -24.6878    0.9037 H         1 UNK         0.0791 
    157 H157      -48.3912  -26.4812    2.6416 H         1 UNK         0.3028 
@<TRIPOS>BOND
     1    1    2 1    
     2    1   82 1    
     3    1   83 1    
     4    1   84 1    
     5    2    3 2    
     6    2    4 am   BACKBONE|DICT|INTERRES
     7    4    5 1    
     8    4   85 1    
     9    5    6 1    
    10    5   80 1    
    11    5   86 1    
    12    6    7 1    
    13    6   87 1    
    14    6   88 1    
    15    7    8 1    
    16    8    9 1    
    17    8   89 1    
    18    8   90 1    
    19    9   10 ar   
    20    9   14 ar   
    21   10   11 ar   
    22   10   91 1    
    23   11   12 ar   
    24   11   58 1    
    25   12   13 ar   
    26   12   92 1    
    27   13   14 ar   
    28   13   15 1    
    29   14   93 1    
    30   15   16 1    
    31   15   94 1    
    32   15   95 1    
    33   16   17 1    
    34   17   18 1    
    35   17   96 1    
    36   17   97 1    
    37   18   19 1    
    38   18   22 1    
    39   18   98 1    
    40   19   20 am   BACKBONE|DICT|INTERRES
    41   19   21 2    
    42   20   99 1    
    43   20  100 1    
    44   22   23 am   BACKBONE|DICT|INTERRES
    45   22  101 1    
    46   23   24 2    
    47   23   25 1    
    48   25   26 1    
    49   25   27 1    
    50   25  102 1    
    51   26  103 1    
    52   26  104 1    
    53   26  105 1    
    54   27   28 am   BACKBONE|DICT|INTERRES
    55   27  106 1    
    56   28   29 2    
    57   28   30 1    
    58   30   31 1    
    59   30   32 1    
    60   30  107 1    
    61   31  108 1    
    62   31  109 1    
    63   31  110 1    
    64   32   33 am   BACKBONE|DICT|INTERRES
    65   32  111 1    
    66   33   34 2    
    67   33   35 1    
    68   35   36 1    
    69   35   37 1    
    70   35  112 1    
    71   36  113 1    
    72   36  114 1    
    73   36  115 1    
    74   37   38 am   BACKBONE|DICT|INTERRES
    75   37  116 1    
    76   38   39 2    
    77   38   40 1    
    78   40   41 1    
    79   40   42 1    
    80   40  117 1    
    81   41  118 1    
    82   41  119 1    
    83   41  120 1    
    84   42   43 am   BACKBONE|DICT|INTERRES
    85   42  121 1    
    86   43   44 2    
    87   43   45 1    
    88   45   46 1    
    89   45   47 1    
    90   45  122 1    
    91   46  123 1    
    92   46  124 1    
    93   46  125 1    
    94   47   48 am   BACKBONE|DICT|INTERRES
    95   47  126 1    
    96   48   49 2    
    97   48   50 1    
    98   50   51 1    
    99   50   52 1    
   100   50  127 1    
   101   51  128 1    
   102   51  129 1    
   103   51  130 1    
   104   52   53 am   BACKBONE|DICT|INTERRES
   105   52  131 1    
   106   53   54 2    
   107   53   55 1    
   108   55   56 1    
   109   55   59 1    
   110   55  132 1    
   111   56   57 1    
   112   56  133 1    
   113   56  134 1    
   114   57   58 1    
   115   58  135 1    
   116   58  136 1    
   117   59   60 am   BACKBONE|DICT|INTERRES
   118   59  137 1    
   119   60   61 2    
   120   60   62 1    
   121   62   63 1    
   122   62   64 1    
   123   62  138 1    
   124   63  139 1    
   125   63  140 1    
   126   63  141 1    
   127   64   65 am   BACKBONE|DICT|INTERRES
   128   64  142 1    
   129   65   66 2    
   130   65   67 1    
   131   67   68 1    
   132   67   69 1    
   133   67  143 1    
   134   68  144 1    
   135   68  145 1    
   136   68  146 1    
   137   69   70 am   BACKBONE|DICT|INTERRES
   138   69  147 1    
   139   70   71 2    
   140   70   72 1    
   141   72   73 1    
   142   72   74 1    
   143   72  148 1    
   144   73  149 1    
   145   73  150 1    
   146   73  151 1    
   147   74   75 am   BACKBONE|DICT|INTERRES
   148   74  152 1    
   149   75   76 2    
   150   75   77 1    
   151   77   78 1    
   152   77   79 1    
   153   77  153 1    
   154   78  154 1    
   155   78  155 1    
   156   78  156 1    
   157   79   80 am   BACKBONE|DICT|INTERRES
   158   79  157 1    
   159   80   81 2    
@<TRIPOS>SUBSTRUCTURE
     1 UNK         1 GROUP             0       ****    0 ROOT    
