@<TRIPOS>MOLECULE
3R207
157   159    1
SMALL
USER_CHARGES


@<TRIPOS>ATOM
      1 CA        -50.8360  -28.8231    9.4844 C.3       0 UNK        -0.1975 
      2 C         -50.2432  -29.1907    8.1337 C.2       0 UNK         0.4852 
      3 O         -49.2800  -29.9551    8.0815 O.2       0 UNK        -0.5216 
      4 N         -50.8089  -28.6623    7.0393 N.am      1 UNK        -0.4461 
      5 CA        -50.3914  -28.9629    5.6623 C.3       1 UNK         0.0864 
      6 C6        -51.5866  -28.9007    4.6742 C.3       14 UNK        -0.0898 
      7 S7        -52.2295  -27.2242    4.3343 S.3       14 UNK        -0.2598 
      8 C8        -53.9213  -27.3015    5.0122 C.3       14 UNK         0.0286 
      9 C9        -53.9699  -27.1424    6.5273 C.ar      14 UNK        -0.0844 
     10 C10       -53.2759  -26.1002    7.1517 C.ar      14 UNK        -0.0881 
     11 C11       -53.3405  -25.9314    8.5363 C.ar      14 UNK        -0.0643 
     12 C12       -54.1539  -26.7766    9.2921 C.ar      14 UNK        -0.0930 
     13 C13       -54.8475  -27.8265    8.6871 C.ar      14 UNK        -0.0827 
     14 C14       -54.7462  -28.0107    7.3038 C.ar      14 UNK        -0.1249 
     15 C15       -55.7169  -28.7398    9.5377 C.3       14 UNK         0.0141 
     16 S16       -54.7159  -29.9230   10.4941 S.3       14 UNK        -0.2313 
     17 C17       -56.0013  -30.6541   11.5656 C.3       14 UNK        -0.0915 
     18 CA        -55.9194  -30.1466   13.0378 C.3       13 UNK         0.0968 
     19 C         -57.1780  -30.5116   13.8850 C.2       13 UNK         0.5732 
     20 N         -57.0574  -30.7425   15.1881 N.am      13 UNK        -0.7310 
     21 O         -58.2912  -30.5540   13.3658 O.2       13 UNK        -0.5035 
     22 N         -54.6395  -30.4633   13.6963 N.am      13 UNK        -0.4233 
     23 C         -54.1709  -31.6905   13.9737 C.2       13 UNK         0.4989 
     24 O         -54.7423  -32.7337   13.6550 O.2       13 UNK        -0.4996 
     25 CA        -52.8418  -31.7905   14.7490 C.3       12 UNK         0.0216 
     26 CB        -51.6926  -32.1380   13.7877 C.3       12 UNK        -0.1964 
     27 N         -52.4894  -30.5775   15.4909 N.am      12 UNK        -0.4276 
     28 C         -53.1550  -30.0821   16.5452 C.2       12 UNK         0.5020 
     29 O         -54.1131  -30.6439   17.0772 O.2       12 UNK        -0.5489 
     30 CA        -52.7088  -28.6918   17.0447 C.3       11 UNK         0.0294 
     31 CB        -51.6668  -28.8275   18.1662 C.3       11 UNK        -0.2019 
     32 N         -52.1691  -27.8461   15.9694 N.am      11 UNK        -0.4493 
     33 C         -52.8765  -27.4559   14.8999 C.2       11 UNK         0.4932 
     34 O         -54.0803  -27.6817   14.7677 O.2       11 UNK        -0.5029 
     35 CA        -52.0791  -26.8195   13.7519 C.3       10 UNK         0.0280 
     36 CB        -52.4667  -27.4550   12.4010 C.3       10 UNK        -0.1976 
     37 N         -52.1814  -25.3565   13.7198 N.am      10 UNK        -0.4242 
     38 C         -53.2572  -24.5924   13.4792 C.2       10 UNK         0.5072 
     39 O         -54.3748  -25.0392   13.2185 O.2       10 UNK        -0.5224 
     40 CA        -53.0459  -23.0598   13.4593 C.3       9 UNK         0.0343 
     41 CB        -54.3254  -22.2877   13.8479 C.3       9 UNK        -0.2003 
     42 N         -51.8979  -22.5551   14.2290 N.am      9 UNK        -0.4272 
     43 C         -51.6795  -22.6584   15.5483 C.2       9 UNK         0.4988 
     44 O         -52.3901  -23.3173   16.3090 O.2       9 UNK        -0.5108 
     45 CA        -50.4625  -21.8828   16.1055 C.3       8 UNK         0.0248 
     46 CB        -50.2942  -22.0581   17.6268 C.3       8 UNK        -0.2001 
     47 N         -49.2097  -22.2623   15.4468 N.am      8 UNK        -0.4140 
     48 C         -48.8183  -21.8745   14.2257 C.2       8 UNK         0.5028 
     49 O         -49.4483  -21.0712   13.5349 O.2       8 UNK        -0.5428 
     50 CA        -47.5756  -22.5659   13.6257 C.3       7 UNK         0.0264 
     51 CB        -46.6614  -23.2465   14.6694 C.3       7 UNK        -0.1988 
     52 N         -47.9682  -23.5258   12.5856 N.am      7 UNK        -0.4454 
     53 C         -48.8659  -24.5156   12.7246 C.2       7 UNK         0.5027 
     54 O         -49.4051  -24.8149   13.7910 O.2       7 UNK        -0.5083 
     55 CA        -49.2599  -25.2844   11.4548 C.3       6 UNK         0.0844 
     56 C56       -50.0012  -24.3531   10.4619 C.3       14 UNK        -0.0967 
     57 S57       -50.7376  -25.2825    9.0827 S.3       14 UNK        -0.2604 
     58 C58       -52.5026  -24.8646    9.2200 C.3       14 UNK         0.0134 
     59 N         -48.1091  -25.9648   10.8639 N.am      6 UNK        -0.4116 
     60 C         -47.3976  -26.9411   11.4474 C.2       5 UNK         0.5034 
     61 O         -47.6778  -27.4475   12.5340 O.2       5 UNK        -0.5045 
     62 CA        -46.1478  -27.4274   10.6982 C.3       5 UNK         0.0224 
     63 CB        -46.5017  -28.5437    9.7018 C.3       5 UNK        -0.1978 
     64 N         -45.4851  -26.3261    9.9965 N.am      5 UNK        -0.4737 
     65 C         -44.6534  -25.4534   10.5826 C.2       4 UNK         0.5027 
     66 O         -44.2774  -25.5478   11.7509 O.2       4 UNK        -0.5211 
     67 CA        -44.1548  -24.2728    9.7294 C.3       4 UNK         0.0297 
     68 CB        -42.8021  -24.6130    9.0836 C.3       4 UNK        -0.1993 
     69 N         -45.1002  -23.8676    8.6859 N.am      4 UNK        -0.4486 
     70 C         -46.2756  -23.2655    8.9134 C.2       3 UNK         0.4961 
     71 O         -46.6892  -22.9584   10.0331 O.2       3 UNK        -0.5105 
     72 CA        -47.1625  -23.0076    7.6804 C.3       3 UNK         0.0299 
     73 CB        -46.7724  -21.6829    7.0061 C.3       3 UNK        -0.1972 
     74 N         -47.1568  -24.0903    6.6841 N.am      3 UNK        -0.4305 
     75 C         -47.4725  -25.3659    6.9454 C.2       2 UNK         0.5006 
     76 O         -47.6883  -25.7969    8.0779 O.2       2 UNK        -0.5106 
     77 CA        -47.5233  -26.3451    5.7726 C.3       2 UNK         0.0296 
     78 CB        -46.1876  -27.1055    5.6575 C.3       2 UNK        -0.2002 
     79 N         -48.6295  -27.2628    6.0355 N.am      2 UNK        -0.4032 
     80 C         -49.1657  -28.1442    5.1823 C.2       1 UNK         0.5000 
     81 O         -48.7358  -28.3249    4.0406 O.2       1 UNK        -0.5238 
     82 H82       -51.0530  -29.7229   10.0592 H         1 UNK         0.0889 
     83 H83       -51.7641  -28.2644    9.3773 H         1 UNK         0.0889 
     84 H84       -50.1318  -28.2151   10.0516 H         1 UNK         0.0889 
     85 H85       -51.5951  -28.0311    7.1303 H         1 UNK         0.3028 
     86 H86       -50.0521  -30.0012    5.6486 H         1 UNK         0.0864 
     87 H87       -52.3957  -29.5340    5.0413 H         1 UNK         0.0720 
     88 H88       -51.2950  -29.3376    3.7174 H         1 UNK         0.0720 
     89 H89       -54.3965  -28.2316    4.6964 H         1 UNK         0.0814 
     90 H90       -54.5069  -26.4958    4.5677 H         1 UNK         0.0814 
     91 H91       -52.6647  -25.4286    6.5639 H         1 UNK         0.1469 
     92 H92       -54.2377  -26.6280   10.3578 H         1 UNK         0.1381 
     93 H93       -55.2898  -28.8171    6.8304 H         1 UNK         0.1206 
     94 H94       -56.4238  -29.2883    8.9131 H         1 UNK         0.0813 
     95 H95       -56.3130  -28.1339   10.2220 H         1 UNK         0.0813 
     96 H96       -56.9767  -30.4270   11.1324 H         1 UNK         0.0638 
     97 H97       -55.9098  -31.7398   11.5228 H         1 UNK         0.0638 
     98 H98       -55.9468  -29.0573   12.9946 H         1 UNK         0.0568 
     99 H99       -57.8796  -30.9652   15.7261 H         1 UNK         0.3450 
    100 H100      -56.1552  -30.6981   15.6392 H         1 UNK         0.3450 
    101 H101      -54.1402  -29.6553   14.0461 H         1 UNK         0.2987 
    102 H102      -52.9467  -32.6040   15.4700 H         1 UNK         0.0766 
    103 H103      -51.5341  -31.3536   13.0462 H         1 UNK         0.0798 
    104 H104      -51.9043  -33.0600   13.2439 H         1 UNK         0.0798 
    105 H105      -50.7559  -32.2903   14.3244 H         1 UNK         0.0798 
    106 H106      -51.7066  -30.0464   15.1391 H         1 UNK         0.3198 
    107 H107      -53.5904  -28.1920   17.4525 H         1 UNK         0.0843 
    108 H108      -51.4021  -27.8553   18.5825 H         1 UNK         0.0831 
    109 H109      -50.7511  -29.3049   17.8150 H         1 UNK         0.0831 
    110 H110      -52.0553  -29.4333   18.9862 H         1 UNK         0.0831 
    111 H111      -51.1866  -27.6142   16.0189 H         1 UNK         0.3133 
    112 H112      -51.0216  -27.0353   13.9121 H         1 UNK         0.0566 
    113 H113      -52.1408  -28.4944   12.3527 H         1 UNK         0.0814 
    114 H114      -53.5463  -27.4574   12.2551 H         1 UNK         0.0814 
    115 H115      -52.0208  -26.9326   11.5571 H         1 UNK         0.0814 
    116 H116      -51.3069  -24.8822   13.9303 H         1 UNK         0.3091 
    117 H117      -52.8274  -22.8150   12.4191 H         1 UNK         0.0702 
    118 H118      -54.1731  -21.2100   13.7877 H         1 UNK         0.0785 
    119 H119      -54.6459  -22.5258   14.8627 H         1 UNK         0.0785 
    120 H120      -55.1527  -22.5313   13.1801 H         1 UNK         0.0785 
    121 H121      -51.2221  -22.0030   13.7079 H         1 UNK         0.2998 
    122 H122      -50.6472  -20.8234   15.9153 H         1 UNK         0.0697 
    123 H123      -49.4655  -21.4602   18.0065 H         1 UNK         0.0825 
    124 H124      -51.1911  -21.7380   18.1590 H         1 UNK         0.0825 
    125 H125      -50.1093  -23.0988   17.8958 H         1 UNK         0.0825 
    126 H126      -48.6711  -22.9877   15.8980 H         1 UNK         0.3029 
    127 H127      -46.9956  -21.7848   13.1314 H         1 UNK         0.0897 
    128 H128      -45.7513  -23.6196   14.1988 H         1 UNK         0.0792 
    129 H129      -46.3543  -22.5422   15.4439 H         1 UNK         0.0792 
    130 H130      -47.1422  -24.0940   15.1590 H         1 UNK         0.0792 
    131 H131      -47.5737  -23.3524   11.6622 H         1 UNK         0.3086 
    132 H132      -49.9531  -26.0657   11.7640 H         1 UNK         0.0583 
    133 H133      -50.7845  -23.7903   10.9727 H         1 UNK         0.1020 
    134 H134      -49.3236  -23.6072   10.0461 H         1 UNK         0.1020 
    135 H135      -52.7836  -24.7793   10.2707 H         1 UNK         0.0694 
    136 H136      -52.6866  -23.8919    8.7619 H         1 UNK         0.0694 
    137 H137      -47.8616  -25.6909    9.9164 H         1 UNK         0.2989 
    138 H138      -45.4594  -27.8426   11.4381 H         1 UNK         0.1055 
    139 H139      -47.2003  -28.2059    8.9366 H         1 UNK         0.0806 
    140 H140      -46.9697  -29.3867   10.2122 H         1 UNK         0.0806 
    141 H141      -45.6126  -28.9232    9.1984 H         1 UNK         0.0806 
    142 H142      -45.8024  -26.1381    9.0542 H         1 UNK         0.3061 
    143 H143      -44.0091  -23.4232   10.4003 H         1 UNK         0.0734 
    144 H144      -42.3946  -23.7601    8.5405 H         1 UNK         0.0832 
    145 H145      -42.0684  -24.8920    9.8413 H         1 UNK         0.0832 
    146 H146      -42.8842  -25.4488    8.3876 H         1 UNK         0.0832 
    147 H147      -44.8515  -24.0838    7.7315 H         1 UNK         0.3156 
    148 H148      -48.1898  -22.9110    8.0365 H         1 UNK         0.0589 
    149 H149      -45.7692  -21.7246    6.5799 H         1 UNK         0.0808 
    150 H150      -47.4671  -21.4239    6.2068 H         1 UNK         0.0808 
    151 H151      -46.7877  -20.8607    7.7232 H         1 UNK         0.0808 
    152 H152      -46.9704  -23.8228    5.7279 H         1 UNK         0.3098 
    153 H153      -47.7264  -25.7990    4.8494 H         1 UNK         0.0720 
    154 H154      -45.3542  -26.4159    5.5175 H         1 UNK         0.0791 
    155 H155      -45.9809  -27.6920    6.5538 H         1 UNK         0.0791 
    156 H156      -46.1847  -27.7864    4.8066 H         1 UNK         0.0791 
    157 H157      -49.0306  -27.1684    6.9608 H         1 UNK         0.3028 
@<TRIPOS>BOND
     1    1    2 1    
     2    1   82 1    
     3    1   83 1    
     4    1   84 1    
     5    2    3 2    
     6    2    4 am   BACKBONE|DICT|INTERRES
     7    4    5 1    
     8    4   85 1    
     9    5    6 1    
    10    5   80 1    
    11    5   86 1    
    12    6    7 1    
    13    6   87 1    
    14    6   88 1    
    15    7    8 1    
    16    8    9 1    
    17    8   89 1    
    18    8   90 1    
    19    9   10 ar   
    20    9   14 ar   
    21   10   11 ar   
    22   10   91 1    
    23   11   12 ar   
    24   11   58 1    
    25   12   13 ar   
    26   12   92 1    
    27   13   14 ar   
    28   13   15 1    
    29   14   93 1    
    30   15   16 1    
    31   15   94 1    
    32   15   95 1    
    33   16   17 1    
    34   17   18 1    
    35   17   96 1    
    36   17   97 1    
    37   18   19 1    
    38   18   22 1    
    39   18   98 1    
    40   19   20 am   BACKBONE|DICT|INTERRES
    41   19   21 2    
    42   20   99 1    
    43   20  100 1    
    44   22   23 am   BACKBONE|DICT|INTERRES
    45   22  101 1    
    46   23   24 2    
    47   23   25 1    
    48   25   26 1    
    49   25   27 1    
    50   25  102 1    
    51   26  103 1    
    52   26  104 1    
    53   26  105 1    
    54   27   28 am   BACKBONE|DICT|INTERRES
    55   27  106 1    
    56   28   29 2    
    57   28   30 1    
    58   30   31 1    
    59   30   32 1    
    60   30  107 1    
    61   31  108 1    
    62   31  109 1    
    63   31  110 1    
    64   32   33 am   BACKBONE|DICT|INTERRES
    65   32  111 1    
    66   33   34 2    
    67   33   35 1    
    68   35   36 1    
    69   35   37 1    
    70   35  112 1    
    71   36  113 1    
    72   36  114 1    
    73   36  115 1    
    74   37   38 am   BACKBONE|DICT|INTERRES
    75   37  116 1    
    76   38   39 2    
    77   38   40 1    
    78   40   41 1    
    79   40   42 1    
    80   40  117 1    
    81   41  118 1    
    82   41  119 1    
    83   41  120 1    
    84   42   43 am   BACKBONE|DICT|INTERRES
    85   42  121 1    
    86   43   44 2    
    87   43   45 1    
    88   45   46 1    
    89   45   47 1    
    90   45  122 1    
    91   46  123 1    
    92   46  124 1    
    93   46  125 1    
    94   47   48 am   BACKBONE|DICT|INTERRES
    95   47  126 1    
    96   48   49 2    
    97   48   50 1    
    98   50   51 1    
    99   50   52 1    
   100   50  127 1    
   101   51  128 1    
   102   51  129 1    
   103   51  130 1    
   104   52   53 am   BACKBONE|DICT|INTERRES
   105   52  131 1    
   106   53   54 2    
   107   53   55 1    
   108   55   56 1    
   109   55   59 1    
   110   55  132 1    
   111   56   57 1    
   112   56  133 1    
   113   56  134 1    
   114   57   58 1    
   115   58  135 1    
   116   58  136 1    
   117   59   60 am   BACKBONE|DICT|INTERRES
   118   59  137 1    
   119   60   61 2    
   120   60   62 1    
   121   62   63 1    
   122   62   64 1    
   123   62  138 1    
   124   63  139 1    
   125   63  140 1    
   126   63  141 1    
   127   64   65 am   BACKBONE|DICT|INTERRES
   128   64  142 1    
   129   65   66 2    
   130   65   67 1    
   131   67   68 1    
   132   67   69 1    
   133   67  143 1    
   134   68  144 1    
   135   68  145 1    
   136   68  146 1    
   137   69   70 am   BACKBONE|DICT|INTERRES
   138   69  147 1    
   139   70   71 2    
   140   70   72 1    
   141   72   73 1    
   142   72   74 1    
   143   72  148 1    
   144   73  149 1    
   145   73  150 1    
   146   73  151 1    
   147   74   75 am   BACKBONE|DICT|INTERRES
   148   74  152 1    
   149   75   76 2    
   150   75   77 1    
   151   77   78 1    
   152   77   79 1    
   153   77  153 1    
   154   78  154 1    
   155   78  155 1    
   156   78  156 1    
   157   79   80 am   BACKBONE|DICT|INTERRES
   158   79  157 1    
   159   80   81 2    
@<TRIPOS>SUBSTRUCTURE
     1 UNK         1 GROUP             0       ****    0 ROOT    
