@<TRIPOS>MOLECULE
3R207
157   159    1
SMALL
USER_CHARGES


@<TRIPOS>ATOM
      1 CA        -46.0417  -29.7096   12.0286 C.3       0 UNK        -0.1975 
      2 C         -46.2482  -29.5229   10.5328 C.2       0 UNK         0.4852 
      3 O         -45.3684  -28.9966    9.8514 O.2       0 UNK        -0.5216 
      4 N         -47.4042  -29.9564   10.0152 N.am      1 UNK        -0.4461 
      5 CA        -47.8284  -29.8014    8.6196 C.3       1 UNK         0.0864 
      6 C6        -49.0972  -30.6385    8.2816 C.3       14 UNK        -0.0898 
      7 S7        -50.3236  -30.7887    9.6310 S.3       14 UNK        -0.2598 
      8 C8        -51.8985  -30.8794    8.7286 C.3       14 UNK         0.0286 
      9 C9        -52.5361  -29.5082    8.5665 C.ar      14 UNK        -0.0844 
     10 C10       -52.3010  -28.7477    7.4164 C.ar      14 UNK        -0.0881 
     11 C11       -52.9329  -27.5124    7.2420 C.ar      14 UNK        -0.0643 
     12 C12       -53.7910  -27.0353    8.2376 C.ar      14 UNK        -0.0930 
     13 C13       -54.0142  -27.7726    9.4018 C.ar      14 UNK        -0.0827 
     14 C14       -53.3937  -29.0154    9.5563 C.ar      14 UNK        -0.1249 
     15 C15       -54.9588  -27.2363   10.4658 C.3       14 UNK         0.0141 
     16 S16       -54.0666  -26.4266   11.8321 S.3       14 UNK        -0.2313 
     17 C17       -55.4891  -25.6881   12.7047 C.3       14 UNK        -0.0915 
     18 CA        -55.2254  -25.3608   14.1980 C.3       13 UNK         0.0968 
     19 C         -56.4807  -24.6889   14.8298 C.2       13 UNK         0.5732 
     20 N         -57.2012  -25.3424   15.7343 N.am      13 UNK        -0.7310 
     21 O         -56.8096  -23.5556   14.4884 O.2       13 UNK        -0.5035 
     22 N         -54.7161  -26.5315   14.9274 N.am      13 UNK        -0.4233 
     23 C         -54.1760  -26.5172   16.1526 C.2       13 UNK         0.4989 
     24 O         -54.0199  -25.4908   16.8148 O.2       13 UNK        -0.4996 
     25 CA        -53.6887  -27.8569   16.7370 C.3       12 UNK         0.0216 
     26 CB        -54.3863  -28.1912   18.0728 C.3       12 UNK        -0.1964 
     27 N         -53.7329  -28.9848   15.7928 N.am      12 UNK        -0.4276 
     28 C         -54.7988  -29.6560   15.3259 C.2       12 UNK         0.5020 
     29 O         -55.9554  -29.4151   15.6725 O.2       12 UNK        -0.5489 
     30 CA        -54.5581  -30.7317   14.2441 C.3       11 UNK         0.0294 
     31 CB        -55.4521  -30.4812   13.0174 C.3       11 UNK        -0.2019 
     32 N         -53.1651  -30.7962   13.7931 N.am      11 UNK        -0.4493 
     33 C         -52.1927  -31.4989   14.3884 C.2       11 UNK         0.4932 
     34 O         -52.3764  -32.2419   15.3524 O.2       11 UNK        -0.5029 
     35 CA        -50.7653  -31.3154   13.8368 C.3       10 UNK         0.0280 
     36 CB        -50.4195  -32.4572   12.8676 C.3       10 UNK        -0.1976 
     37 N         -50.5192  -30.0209   13.1812 N.am      10 UNK        -0.4242 
     38 C         -50.6205  -28.8223   13.7777 C.2       10 UNK         0.5072 
     39 O         -51.0255  -28.6819   14.9327 O.2       10 UNK        -0.5224 
     40 CA        -50.1942  -27.5896   12.9577 C.3       9 UNK         0.0343 
     41 CB        -50.4947  -27.7143   11.4559 C.3       9 UNK        -0.2003 
     42 N         -50.8206  -26.3610   13.4414 N.am      9 UNK        -0.4272 
     43 C         -50.3347  -25.5829   14.4157 C.2       9 UNK         0.4988 
     44 O         -49.3087  -25.8293   15.0521 O.2       9 UNK        -0.5108 
     45 CA        -51.0956  -24.2737   14.6540 C.3       8 UNK         0.0248 
     46 CB        -50.4452  -23.3759   15.7265 C.3       8 UNK        -0.2001 
     47 N         -51.2012  -23.5538   13.3846 N.am      8 UNK        -0.4140 
     48 C         -52.1664  -22.6797   13.0762 C.2       8 UNK         0.5028 
     49 O         -53.0820  -22.3725   13.8395 O.2       8 UNK        -0.5428 
     50 CA        -52.1060  -22.0245   11.6907 C.3       7 UNK         0.0264 
     51 CB        -51.2626  -20.7400   11.7507 C.3       7 UNK        -0.1988 
     52 N         -51.5352  -22.9130   10.6766 N.am      7 UNK        -0.4454 
     53 C         -52.2277  -23.4792    9.6740 C.2       7 UNK         0.5027 
     54 O         -53.4533  -23.4015    9.5718 O.2       7 UNK        -0.5083 
     55 CA        -51.4143  -24.2415    8.5936 C.3       6 UNK         0.0844 
     56 C56       -52.1030  -24.2497    7.1989 C.3       14 UNK        -0.0967 
     57 S57       -51.3716  -25.5075    6.0966 S.3       14 UNK        -0.2604 
     58 C58       -52.7257  -26.7175    5.9593 C.3       14 UNK         0.0134 
     59 N         -50.0215  -23.7781    8.5309 N.am      6 UNK        -0.4116 
     60 C         -49.6094  -22.5363    8.2274 C.2       5 UNK         0.5034 
     61 O         -50.3538  -21.6535    7.7985 O.2       5 UNK        -0.5045 
     62 CA        -48.1312  -22.1948    8.4897 C.3       5 UNK         0.0224 
     63 CB        -47.9765  -20.8100    9.1530 C.3       5 UNK        -0.1978 
     64 N         -47.3872  -23.2031    9.2557 N.am      5 UNK        -0.4737 
     65 C         -47.6013  -23.6520   10.5029 C.2       4 UNK         0.5027 
     66 O         -48.5770  -23.3247   11.1853 O.2       4 UNK        -0.5211 
     67 CA        -46.5799  -24.6737   11.0494 C.3       4 UNK         0.0297 
     68 CB        -47.2388  -25.7002   11.9801 C.3       4 UNK        -0.1993 
     69 N         -45.8949  -25.3919    9.9692 N.am      4 UNK        -0.4486 
     70 C         -44.7521  -25.0047    9.3819 C.2       3 UNK         0.4961 
     71 O         -44.0679  -24.0622    9.7797 O.2       3 UNK        -0.5105 
     72 CA        -44.3301  -25.7406    8.0947 C.3       3 UNK         0.0299 
     73 CB        -43.1716  -26.7124    8.3683 C.3       3 UNK        -0.1972 
     74 N         -45.4393  -26.4498    7.4450 N.am      3 UNK        -0.4305 
     75 C         -46.4685  -25.8422    6.8309 C.2       2 UNK         0.5006 
     76 O         -46.5382  -24.6219    6.6844 O.2       2 UNK        -0.5106 
     77 CA        -47.6328  -26.7157    6.3230 C.3       2 UNK         0.0296 
     78 CB        -47.5969  -26.8317    4.7907 C.3       2 UNK        -0.2002 
     79 N         -47.6816  -28.0586    6.9097 N.am      2 UNK        -0.4032 
     80 C         -47.9462  -28.3186    8.1980 C.2       1 UNK         0.5000 
     81 O         -48.2132  -27.4424    9.0257 O.2       1 UNK        -0.5238 
     82 H82       -45.2278  -30.4115   12.2082 H         1 UNK         0.0889 
     83 H83       -46.9367  -30.0912   12.5201 H         1 UNK         0.0889 
     84 H84       -45.7794  -28.7594   12.4927 H         1 UNK         0.0889 
     85 H85       -48.0934  -30.3877   10.6123 H         1 UNK         0.3028 
     86 H86       -47.0132  -30.2153    8.0211 H         1 UNK         0.0864 
     87 H87       -48.7881  -31.6564    8.0383 H         1 UNK         0.0720 
     88 H88       -49.5852  -30.2682    7.3784 H         1 UNK         0.0720 
     89 H89       -52.5762  -31.5318    9.2816 H         1 UNK         0.0814 
     90 H90       -51.7518  -31.3565    7.7584 H         1 UNK         0.0814 
     91 H91       -51.6441  -29.1257    6.6456 H         1 UNK         0.1469 
     92 H92       -54.3012  -26.0923    8.1079 H         1 UNK         0.1381 
     93 H93       -53.5796  -29.5995   10.4468 H         1 UNK         0.1206 
     94 H94       -55.6490  -26.5172   10.0206 H         1 UNK         0.0813 
     95 H95       -55.5785  -28.0452   10.8518 H         1 UNK         0.0813 
     96 H96       -55.7677  -24.7824   12.1619 H         1 UNK         0.0638 
     97 H97       -56.3392  -26.3685   12.6217 H         1 UNK         0.0638 
     98 H98       -54.4376  -24.6084   14.2327 H         1 UNK         0.0568 
     99 H99       -56.9461  -26.2765   16.0129 H         1 UNK         0.3450 
    100 H100      -58.0110  -24.8971   16.1361 H         1 UNK         0.3450 
    101 H101      -54.8253  -27.4208   14.4651 H         1 UNK         0.2987 
    102 H102      -52.6295  -27.7096   16.9562 H         1 UNK         0.0766 
    103 H103      -55.4681  -28.2732   17.9623 H         1 UNK         0.0798 
    104 H104      -54.0180  -29.1287   18.4898 H         1 UNK         0.0798 
    105 H105      -54.1988  -27.4129   18.8138 H         1 UNK         0.0798 
    106 H106      -52.8198  -29.2168   15.4079 H         1 UNK         0.3198 
    107 H107      -54.8400  -31.6931   14.6791 H         1 UNK         0.0843 
    108 H108      -56.5090  -30.5077   13.2874 H         1 UNK         0.0831 
    109 H109      -55.2983  -31.2392   12.2489 H         1 UNK         0.0831 
    110 H110      -55.2538  -29.5063   12.5749 H         1 UNK         0.0831 
    111 H111      -52.9136  -30.2155   13.0067 H         1 UNK         0.3133 
    112 H112      -50.0825  -31.3768   14.6871 H         1 UNK         0.0566 
    113 H113      -49.3950  -32.3790   12.5030 H         1 UNK         0.0814 
    114 H114      -50.5118  -33.4262   13.3604 H         1 UNK         0.0814 
    115 H115      -51.0865  -32.4704   12.0047 H         1 UNK         0.0814 
    116 H116      -50.2298  -30.0549   12.2142 H         1 UNK         0.3091 
    117 H117      -49.1136  -27.5049   13.0801 H         1 UNK         0.0702 
    118 H118      -50.3731  -26.7626   10.9377 H         1 UNK         0.0785 
    119 H119      -51.5098  -28.0611   11.2697 H         1 UNK         0.0785 
    120 H120      -49.8033  -28.4059   10.9809 H         1 UNK         0.0785 
    121 H121      -51.6916  -26.0999   13.0002 H         1 UNK         0.2998 
    122 H122      -52.0946  -24.5488   14.9961 H         1 UNK         0.0697 
    123 H123      -49.4442  -23.0589   15.4316 H         1 UNK         0.0825 
    124 H124      -50.3572  -23.9044   16.6766 H         1 UNK         0.0825 
    125 H125      -51.0399  -22.4812   15.9106 H         1 UNK         0.0825 
    126 H126      -50.4685  -23.7369   12.7102 H         1 UNK         0.3029 
    127 H127      -53.1260  -21.7443   11.4184 H         1 UNK         0.0897 
    128 H128      -51.2469  -20.2325   10.7857 H         1 UNK         0.0792 
    129 H129      -51.6699  -20.0384   12.4801 H         1 UNK         0.0792 
    130 H130      -50.2301  -20.9466   12.0363 H         1 UNK         0.0792 
    131 H131      -50.5263  -23.0303   10.6956 H         1 UNK         0.3086 
    132 H132      -51.3738  -25.2718    8.9518 H         1 UNK         0.0583 
    133 H133      -53.1746  -24.4242    7.2755 H         1 UNK         0.1020 
    134 H134      -52.0197  -23.2765    6.7146 H         1 UNK         0.1020 
    135 H135      -53.6476  -26.2069    5.6764 H         1 UNK         0.0694 
    136 H136      -52.4977  -27.3983    5.1377 H         1 UNK         0.0694 
    137 H137      -49.3273  -24.4304    8.8657 H         1 UNK         0.2989 
    138 H138      -47.6594  -22.1500    7.5068 H         1 UNK         0.1055 
    139 H139      -46.9270  -20.5590    9.3064 H         1 UNK         0.0806 
    140 H140      -48.4760  -20.7676   10.1211 H         1 UNK         0.0806 
    141 H141      -48.4063  -20.0234    8.5316 H         1 UNK         0.0806 
    142 H142      -46.6029  -23.6025    8.7559 H         1 UNK         0.3061 
    143 H143      -45.8516  -24.1101   11.6359 H         1 UNK         0.0734 
    144 H144      -46.5055  -26.3944   12.3887 H         1 UNK         0.0832 
    145 H145      -47.7253  -25.2122   12.8250 H         1 UNK         0.0832 
    146 H146      -47.9930  -26.2793   11.4497 H         1 UNK         0.0832 
    147 H147      -46.4019  -26.1741    9.5700 H         1 UNK         0.3156 
    148 H148      -43.9672  -24.9836    7.3959 H         1 UNK         0.0589 
    149 H149      -43.4438  -27.4782    9.0936 H         1 UNK         0.0808 
    150 H150      -42.8454  -27.2118    7.4559 H         1 UNK         0.0808 
    151 H151      -42.3083  -26.1810    8.7713 H         1 UNK         0.0808 
    152 H152      -45.4540  -27.4549    7.5467 H         1 UNK         0.3098 
    153 H153      -48.5534  -26.2009    6.6030 H         1 UNK         0.0720 
    154 H154      -48.4718  -27.3618    4.4135 H         1 UNK         0.0791 
    155 H155      -46.7060  -27.3572    4.4443 H         1 UNK         0.0791 
    156 H156      -47.5958  -25.8450    4.3250 H         1 UNK         0.0791 
    157 H157      -47.4658  -28.8260    6.2890 H         1 UNK         0.3028 
@<TRIPOS>BOND
     1    1    2 1    
     2    1   82 1    
     3    1   83 1    
     4    1   84 1    
     5    2    3 2    
     6    2    4 am   BACKBONE|DICT|INTERRES
     7    4    5 1    
     8    4   85 1    
     9    5    6 1    
    10    5   80 1    
    11    5   86 1    
    12    6    7 1    
    13    6   87 1    
    14    6   88 1    
    15    7    8 1    
    16    8    9 1    
    17    8   89 1    
    18    8   90 1    
    19    9   10 ar   
    20    9   14 ar   
    21   10   11 ar   
    22   10   91 1    
    23   11   12 ar   
    24   11   58 1    
    25   12   13 ar   
    26   12   92 1    
    27   13   14 ar   
    28   13   15 1    
    29   14   93 1    
    30   15   16 1    
    31   15   94 1    
    32   15   95 1    
    33   16   17 1    
    34   17   18 1    
    35   17   96 1    
    36   17   97 1    
    37   18   19 1    
    38   18   22 1    
    39   18   98 1    
    40   19   20 am   BACKBONE|DICT|INTERRES
    41   19   21 2    
    42   20   99 1    
    43   20  100 1    
    44   22   23 am   BACKBONE|DICT|INTERRES
    45   22  101 1    
    46   23   24 2    
    47   23   25 1    
    48   25   26 1    
    49   25   27 1    
    50   25  102 1    
    51   26  103 1    
    52   26  104 1    
    53   26  105 1    
    54   27   28 am   BACKBONE|DICT|INTERRES
    55   27  106 1    
    56   28   29 2    
    57   28   30 1    
    58   30   31 1    
    59   30   32 1    
    60   30  107 1    
    61   31  108 1    
    62   31  109 1    
    63   31  110 1    
    64   32   33 am   BACKBONE|DICT|INTERRES
    65   32  111 1    
    66   33   34 2    
    67   33   35 1    
    68   35   36 1    
    69   35   37 1    
    70   35  112 1    
    71   36  113 1    
    72   36  114 1    
    73   36  115 1    
    74   37   38 am   BACKBONE|DICT|INTERRES
    75   37  116 1    
    76   38   39 2    
    77   38   40 1    
    78   40   41 1    
    79   40   42 1    
    80   40  117 1    
    81   41  118 1    
    82   41  119 1    
    83   41  120 1    
    84   42   43 am   BACKBONE|DICT|INTERRES
    85   42  121 1    
    86   43   44 2    
    87   43   45 1    
    88   45   46 1    
    89   45   47 1    
    90   45  122 1    
    91   46  123 1    
    92   46  124 1    
    93   46  125 1    
    94   47   48 am   BACKBONE|DICT|INTERRES
    95   47  126 1    
    96   48   49 2    
    97   48   50 1    
    98   50   51 1    
    99   50   52 1    
   100   50  127 1    
   101   51  128 1    
   102   51  129 1    
   103   51  130 1    
   104   52   53 am   BACKBONE|DICT|INTERRES
   105   52  131 1    
   106   53   54 2    
   107   53   55 1    
   108   55   56 1    
   109   55   59 1    
   110   55  132 1    
   111   56   57 1    
   112   56  133 1    
   113   56  134 1    
   114   57   58 1    
   115   58  135 1    
   116   58  136 1    
   117   59   60 am   BACKBONE|DICT|INTERRES
   118   59  137 1    
   119   60   61 2    
   120   60   62 1    
   121   62   63 1    
   122   62   64 1    
   123   62  138 1    
   124   63  139 1    
   125   63  140 1    
   126   63  141 1    
   127   64   65 am   BACKBONE|DICT|INTERRES
   128   64  142 1    
   129   65   66 2    
   130   65   67 1    
   131   67   68 1    
   132   67   69 1    
   133   67  143 1    
   134   68  144 1    
   135   68  145 1    
   136   68  146 1    
   137   69   70 am   BACKBONE|DICT|INTERRES
   138   69  147 1    
   139   70   71 2    
   140   70   72 1    
   141   72   73 1    
   142   72   74 1    
   143   72  148 1    
   144   73  149 1    
   145   73  150 1    
   146   73  151 1    
   147   74   75 am   BACKBONE|DICT|INTERRES
   148   74  152 1    
   149   75   76 2    
   150   75   77 1    
   151   77   78 1    
   152   77   79 1    
   153   77  153 1    
   154   78  154 1    
   155   78  155 1    
   156   78  156 1    
   157   79   80 am   BACKBONE|DICT|INTERRES
   158   79  157 1    
   159   80   81 2    
@<TRIPOS>SUBSTRUCTURE
     1 UNK         1 GROUP             0       ****    0 ROOT    
