@<TRIPOS>MOLECULE
3R207
157   159    1
SMALL
USER_CHARGES


@<TRIPOS>ATOM
      1 CA        -50.5594  -29.1946    1.7618 C.3       0 UNK        -0.1975 
      2 C         -49.9831  -28.5279    3.0015 C.2       0 UNK         0.4852 
      3 O         -49.1138  -29.1040    3.6573 O.2       0 UNK        -0.5216 
      4 N         -50.4418  -27.3075    3.3167 N.am      1 UNK        -0.4461 
      5 CA        -50.0803  -26.4748    4.4769 C.3       1 UNK         0.0864 
      6 C6        -50.3569  -27.1783    5.8354 C.3       14 UNK        -0.0898 
      7 S7        -50.7141  -25.9959    7.1787 S.3       14 UNK        -0.2598 
      8 C8        -52.4734  -26.3602    7.5124 C.3       14 UNK         0.0286 
      9 C9        -52.7540  -27.6983    8.2019 C.ar      14 UNK        -0.0844 
     10 C10       -51.7734  -28.4102    8.9064 C.ar      14 UNK        -0.0881 
     11 C11       -52.0859  -29.6026    9.5682 C.ar      14 UNK        -0.0643 
     12 C12       -53.3903  -30.1001    9.5003 C.ar      14 UNK        -0.0930 
     13 C13       -54.3771  -29.4105    8.7908 C.ar      14 UNK        -0.0827 
     14 C14       -54.0528  -28.2114    8.1504 C.ar      14 UNK        -0.1249 
     15 C15       -55.7975  -29.9541    8.7232 C.3       14 UNK         0.0141 
     16 S16       -56.6601  -29.8283   10.3222 S.3       14 UNK        -0.2313 
     17 C17       -56.5918  -28.0318   10.6468 C.3       14 UNK        -0.0915 
     18 CA        -55.4788  -27.6487   11.6685 C.3       13 UNK         0.0968 
     19 C         -55.3083  -26.1066   11.8164 C.2       13 UNK         0.5732 
     20 N         -55.0826  -25.5739   13.0118 N.am      13 UNK        -0.7310 
     21 O         -55.3466  -25.3787   10.8277 O.2       13 UNK        -0.5035 
     22 N         -55.5796  -28.3874   12.9397 N.am      13 UNK        -0.4233 
     23 C         -56.5974  -28.3708   13.8081 C.2       13 UNK         0.4989 
     24 O         -57.6195  -27.7000   13.6637 O.2       13 UNK        -0.4996 
     25 CA        -56.4424  -29.2259   15.0787 C.3       12 UNK         0.0216 
     26 CB        -56.7309  -30.7135   14.7947 C.3       12 UNK        -0.1964 
     27 N         -55.1572  -29.0315   15.7662 N.am      12 UNK        -0.4276 
     28 C         -53.9218  -29.3686   15.3707 C.2       12 UNK         0.5020 
     29 O         -53.6760  -29.9743   14.3266 O.2       12 UNK        -0.5489 
     30 CA        -52.7755  -28.8638   16.2648 C.3       11 UNK         0.0294 
     31 CB        -51.4147  -29.4849   15.9029 C.3       11 UNK        -0.2019 
     32 N         -52.6695  -27.4057   16.1812 N.am      11 UNK        -0.4493 
     33 C         -53.4707  -26.5387   16.8167 C.2       11 UNK         0.4932 
     34 O         -54.3923  -26.8891   17.5575 O.2       11 UNK        -0.5029 
     35 CA        -53.2051  -25.0431   16.5650 C.3       10 UNK         0.0280 
     36 CB        -53.9796  -24.1163   17.5254 C.3       10 UNK        -0.1976 
     37 N         -51.7751  -24.7236   16.5623 N.am      10 UNK        -0.4242 
     38 C         -50.8965  -24.8905   17.5640 C.2       10 UNK         0.5072 
     39 O         -51.2033  -25.2852   18.6901 O.2       10 UNK        -0.5224 
     40 CA        -49.4138  -24.5960   17.2658 C.3       9 UNK         0.0343 
     41 CB        -48.6068  -25.9053   17.2737 C.3       9 UNK        -0.2003 
     42 N         -49.1972  -23.9089   15.9890 N.am      9 UNK        -0.4272 
     43 C         -49.4509  -22.6106   15.7699 C.2       9 UNK         0.4988 
     44 O         -49.8179  -21.8281   16.6469 O.2       9 UNK        -0.5108 
     45 CA        -49.3079  -22.1054   14.3233 C.3       8 UNK         0.0248 
     46 CB        -47.8461  -21.7440   14.0200 C.3       8 UNK        -0.2001 
     47 N         -49.8064  -23.0533   13.3196 N.am      8 UNK        -0.4140 
     48 C         -51.0797  -23.4668   13.2250 C.2       8 UNK         0.5028 
     49 O         -51.9765  -23.1009   13.9837 O.2       8 UNK        -0.5428 
     50 CA        -51.4062  -24.4913   12.1283 C.3       7 UNK         0.0264 
     51 CB        -51.5514  -23.8115   10.7584 C.3       7 UNK        -0.1988 
     52 N         -50.4061  -25.5534   12.0488 N.am      7 UNK        -0.4454 
     53 C         -50.2305  -26.5010   12.9815 C.2       7 UNK         0.5027 
     54 O         -50.9086  -26.5900   14.0083 O.2       7 UNK        -0.5083 
     55 CA        -49.0554  -27.4742   12.7431 C.3       6 UNK         0.0844 
     56 C56       -49.3699  -28.5188   11.6451 C.3       14 UNK        -0.0967 
     57 S57       -50.7303  -29.6758   12.0029 S.3       14 UNK        -0.2604 
     58 C58       -51.0189  -30.3694   10.3404 C.3       14 UNK         0.0134 
     59 N         -47.8328  -26.7458   12.3892 N.am      6 UNK        -0.4116 
     60 C         -47.1939  -25.8551   13.1620 C.2       5 UNK         0.5034 
     61 O         -47.5347  -25.5706   14.3077 O.2       5 UNK        -0.5045 
     62 CA        -45.9955  -25.1177   12.5356 C.3       5 UNK         0.0224 
     63 CB        -44.6955  -25.8960   12.7912 C.3       5 UNK        -0.1978 
     64 N         -46.1422  -24.8764   11.0973 N.am      5 UNK        -0.4737 
     65 C         -47.1433  -24.1932   10.5237 C.2       4 UNK         0.5027 
     66 O         -48.0180  -23.6069   11.1604 O.2       4 UNK        -0.5211 
     67 CA        -47.2185  -24.2141    8.9861 C.3       4 UNK         0.0297 
     68 CB        -46.6446  -22.9145    8.4027 C.3       4 UNK        -0.1993 
     69 N         -46.5565  -25.3633    8.3544 N.am      4 UNK        -0.4486 
     70 C         -46.8455  -26.6534    8.5729 C.2       3 UNK         0.4961 
     71 O         -47.6714  -27.0314    9.4044 O.2       3 UNK        -0.5105 
     72 CA        -46.0756  -27.6845    7.7259 C.3       3 UNK         0.0299 
     73 CB        -46.4496  -29.1344    8.0878 C.3       3 UNK        -0.1972 
     74 N         -46.3097  -27.4797    6.2960 N.am      3 UNK        -0.4305 
     75 C         -45.7380  -26.5372    5.5317 C.2       2 UNK         0.5006 
     76 O         -44.8858  -25.7488    5.9436 O.2       2 UNK        -0.5106 
     77 CA        -46.2408  -26.4274    4.0823 C.3       2 UNK         0.0296 
     78 CB        -45.4661  -27.3832    3.1613 C.3       2 UNK        -0.2002 
     79 N         -47.6735  -26.7144    3.9929 N.am      2 UNK        -0.4032 
     80 C         -48.6456  -25.8998    4.4238 C.2       1 UNK         0.5000 
     81 O         -48.4447  -24.7370    4.7792 O.2       1 UNK        -0.5238 
     82 H82       -49.7662  -29.4000    1.0435 H         1 UNK         0.0889 
     83 H83       -51.3076  -28.5710    1.2727 H         1 UNK         0.0889 
     84 H84       -51.0293  -30.1403    2.0304 H         1 UNK         0.0889 
     85 H85       -51.1269  -26.8860    2.7039 H         1 UNK         0.3028 
     86 H86       -50.7508  -25.6165    4.4048 H         1 UNK         0.0864 
     87 H87       -51.2086  -27.8532    5.7374 H         1 UNK         0.0720 
     88 H88       -49.5219  -27.8129    6.1380 H         1 UNK         0.0720 
     89 H89       -53.0194  -26.3100    6.5689 H         1 UNK         0.0814 
     90 H90       -52.8784  -25.5649    8.1385 H         1 UNK         0.0814 
     91 H91       -50.7627  -28.0367    8.9424 H         1 UNK         0.1469 
     92 H92       -53.6433  -31.0214   10.0073 H         1 UNK         0.1381 
     93 H93       -54.8195  -27.6682    7.6145 H         1 UNK         0.1206 
     94 H94       -55.7685  -31.0011    8.4186 H         1 UNK         0.0813 
     95 H95       -56.3788  -29.4313    7.9620 H         1 UNK         0.0813 
     96 H96       -57.5705  -27.7134   11.0077 H         1 UNK         0.0638 
     97 H97       -56.4450  -27.5109    9.6996 H         1 UNK         0.0638 
     98 H98       -54.5283  -27.9711   11.2438 H         1 UNK         0.0568 
     99 H99       -54.9715  -24.5761   13.0921 H         1 UNK         0.3450 
    100 H100      -55.0643  -26.1585   13.8294 H         1 UNK         0.3450 
    101 H101      -54.7820  -28.9727   13.1784 H         1 UNK         0.2987 
    102 H102      -57.2013  -28.8788   15.7819 H         1 UNK         0.0766 
    103 H103      -56.6726  -31.3098   15.7053 H         1 UNK         0.0798 
    104 H104      -56.0343  -31.1373   14.0707 H         1 UNK         0.0798 
    105 H105      -57.7342  -30.8413   14.3862 H         1 UNK         0.0798 
    106 H106      -55.2026  -28.4491   16.5988 H         1 UNK         0.3198 
    107 H107      -53.0062  -29.1486   17.2938 H         1 UNK         0.0843 
    108 H108      -51.1038  -29.2119   14.8949 H         1 UNK         0.0831 
    109 H109      -51.4574  -30.5738   15.9473 H         1 UNK         0.0831 
    110 H110      -50.6347  -29.1600   16.5915 H         1 UNK         0.0831 
    111 H111      -51.9810  -27.0438   15.5233 H         1 UNK         0.3133 
    112 H112      -53.5601  -24.8383   15.5544 H         1 UNK         0.0566 
    113 H113      -53.7803  -23.0669   17.3081 H         1 UNK         0.0814 
    114 H114      -55.0556  -24.2675   17.4305 H         1 UNK         0.0814 
    115 H115      -53.7172  -24.2998   18.5677 H         1 UNK         0.0814 
    116 H116      -51.4226  -24.3724   15.6800 H         1 UNK         0.3091 
    117 H117      -49.0389  -23.9590   18.0695 H         1 UNK         0.0702 
    118 H118      -47.5442  -25.7177   17.1184 H         1 UNK         0.0785 
    119 H119      -48.9446  -26.5889   16.4930 H         1 UNK         0.0785 
    120 H120      -48.7073  -26.4243   18.2278 H         1 UNK         0.0785 
    121 H121      -48.8245  -24.4763   15.2317 H         1 UNK         0.2998 
    122 H122      -49.9061  -21.1965   14.2314 H         1 UNK         0.0697 
    123 H123      -47.1877  -22.6026   14.1447 H         1 UNK         0.0825 
    124 H124      -47.4912  -20.9632   14.6940 H         1 UNK         0.0825 
    125 H125      -47.7282  -21.3729   13.0016 H         1 UNK         0.0825 
    126 H126      -49.1412  -23.3676   12.6148 H         1 UNK         0.3029 
    127 H127      -52.3631  -24.9530   12.3796 H         1 UNK         0.0897 
    128 H128      -51.8348  -24.5313    9.9917 H         1 UNK         0.0792 
    129 H129      -50.6266  -23.3296   10.4395 H         1 UNK         0.0792 
    130 H130      -52.3276  -23.0455   10.7855 H         1 UNK         0.0792 
    131 H131      -49.7687  -25.5189   11.2660 H         1 UNK         0.3086 
    132 H132      -48.8642  -28.0018   13.6798 H         1 UNK         0.0583 
    133 H133      -49.5887  -28.0054   10.7130 H         1 UNK         0.1020 
    134 H134      -48.4809  -29.1205   11.4477 H         1 UNK         0.1020 
    135 H135      -50.0869  -30.3875    9.7731 H         1 UNK         0.0694 
    136 H136      -51.3194  -31.4122   10.4530 H         1 UNK         0.0694 
    137 H137      -47.5109  -26.8670   11.4345 H         1 UNK         0.2989 
    138 H138      -45.9128  -24.1465   13.0250 H         1 UNK         0.1055 
    139 H139      -44.5500  -26.0713   13.8583 H         1 UNK         0.0806 
    140 H140      -43.8252  -25.3443   12.4351 H         1 UNK         0.0806 
    141 H141      -44.7020  -26.8694   12.2991 H         1 UNK         0.0806 
    142 H142      -45.4694  -25.3196   10.4888 H         1 UNK         0.3061 
    143 H143      -48.2766  -24.2689    8.7210 H         1 UNK         0.0734 
    144 H144      -46.7917  -22.8664    7.3233 H         1 UNK         0.0832 
    145 H145      -47.1372  -22.0418    8.8342 H         1 UNK         0.0832 
    146 H146      -45.5766  -22.8192    8.6025 H         1 UNK         0.0832 
    147 H147      -45.8698  -25.1610    7.6344 H         1 UNK         0.3156 
    148 H148      -45.0119  -27.5511    7.9338 H         1 UNK         0.0589 
    149 H149      -47.5070  -29.3362    7.9101 H         1 UNK         0.0808 
    150 H150      -45.8684  -29.8517    7.5081 H         1 UNK         0.0808 
    151 H151      -46.2527  -29.3373    9.1414 H         1 UNK         0.0808 
    152 H152      -47.0154  -28.0652    5.8740 H         1 UNK         0.3098 
    153 H153      -46.0674  -25.4043    3.7416 H         1 UNK         0.0720 
    154 H154      -45.7773  -27.2700    2.1226 H         1 UNK         0.0791 
    155 H155      -45.6126  -28.4268    3.4429 H         1 UNK         0.0791 
    156 H156      -44.3949  -27.1805    3.2020 H         1 UNK         0.0791 
    157 H157      -47.9511  -27.6578    3.7308 H         1 UNK         0.3028 
@<TRIPOS>BOND
     1    1    2 1    
     2    1   82 1    
     3    1   83 1    
     4    1   84 1    
     5    2    3 2    
     6    2    4 am   BACKBONE|DICT|INTERRES
     7    4    5 1    
     8    4   85 1    
     9    5    6 1    
    10    5   80 1    
    11    5   86 1    
    12    6    7 1    
    13    6   87 1    
    14    6   88 1    
    15    7    8 1    
    16    8    9 1    
    17    8   89 1    
    18    8   90 1    
    19    9   10 ar   
    20    9   14 ar   
    21   10   11 ar   
    22   10   91 1    
    23   11   12 ar   
    24   11   58 1    
    25   12   13 ar   
    26   12   92 1    
    27   13   14 ar   
    28   13   15 1    
    29   14   93 1    
    30   15   16 1    
    31   15   94 1    
    32   15   95 1    
    33   16   17 1    
    34   17   18 1    
    35   17   96 1    
    36   17   97 1    
    37   18   19 1    
    38   18   22 1    
    39   18   98 1    
    40   19   20 am   BACKBONE|DICT|INTERRES
    41   19   21 2    
    42   20   99 1    
    43   20  100 1    
    44   22   23 am   BACKBONE|DICT|INTERRES
    45   22  101 1    
    46   23   24 2    
    47   23   25 1    
    48   25   26 1    
    49   25   27 1    
    50   25  102 1    
    51   26  103 1    
    52   26  104 1    
    53   26  105 1    
    54   27   28 am   BACKBONE|DICT|INTERRES
    55   27  106 1    
    56   28   29 2    
    57   28   30 1    
    58   30   31 1    
    59   30   32 1    
    60   30  107 1    
    61   31  108 1    
    62   31  109 1    
    63   31  110 1    
    64   32   33 am   BACKBONE|DICT|INTERRES
    65   32  111 1    
    66   33   34 2    
    67   33   35 1    
    68   35   36 1    
    69   35   37 1    
    70   35  112 1    
    71   36  113 1    
    72   36  114 1    
    73   36  115 1    
    74   37   38 am   BACKBONE|DICT|INTERRES
    75   37  116 1    
    76   38   39 2    
    77   38   40 1    
    78   40   41 1    
    79   40   42 1    
    80   40  117 1    
    81   41  118 1    
    82   41  119 1    
    83   41  120 1    
    84   42   43 am   BACKBONE|DICT|INTERRES
    85   42  121 1    
    86   43   44 2    
    87   43   45 1    
    88   45   46 1    
    89   45   47 1    
    90   45  122 1    
    91   46  123 1    
    92   46  124 1    
    93   46  125 1    
    94   47   48 am   BACKBONE|DICT|INTERRES
    95   47  126 1    
    96   48   49 2    
    97   48   50 1    
    98   50   51 1    
    99   50   52 1    
   100   50  127 1    
   101   51  128 1    
   102   51  129 1    
   103   51  130 1    
   104   52   53 am   BACKBONE|DICT|INTERRES
   105   52  131 1    
   106   53   54 2    
   107   53   55 1    
   108   55   56 1    
   109   55   59 1    
   110   55  132 1    
   111   56   57 1    
   112   56  133 1    
   113   56  134 1    
   114   57   58 1    
   115   58  135 1    
   116   58  136 1    
   117   59   60 am   BACKBONE|DICT|INTERRES
   118   59  137 1    
   119   60   61 2    
   120   60   62 1    
   121   62   63 1    
   122   62   64 1    
   123   62  138 1    
   124   63  139 1    
   125   63  140 1    
   126   63  141 1    
   127   64   65 am   BACKBONE|DICT|INTERRES
   128   64  142 1    
   129   65   66 2    
   130   65   67 1    
   131   67   68 1    
   132   67   69 1    
   133   67  143 1    
   134   68  144 1    
   135   68  145 1    
   136   68  146 1    
   137   69   70 am   BACKBONE|DICT|INTERRES
   138   69  147 1    
   139   70   71 2    
   140   70   72 1    
   141   72   73 1    
   142   72   74 1    
   143   72  148 1    
   144   73  149 1    
   145   73  150 1    
   146   73  151 1    
   147   74   75 am   BACKBONE|DICT|INTERRES
   148   74  152 1    
   149   75   76 2    
   150   75   77 1    
   151   77   78 1    
   152   77   79 1    
   153   77  153 1    
   154   78  154 1    
   155   78  155 1    
   156   78  156 1    
   157   79   80 am   BACKBONE|DICT|INTERRES
   158   79  157 1    
   159   80   81 2    
@<TRIPOS>SUBSTRUCTURE
     1 UNK         1 GROUP             0       ****    0 ROOT    
