@<TRIPOS>MOLECULE
3R207
157   159    1
SMALL
USER_CHARGES


@<TRIPOS>ATOM
      1 CA        -48.8892  -29.2819    0.3955 C.3       0 UNK        -0.1975 
      2 C         -49.3292  -28.9019    1.8012 C.2       0 UNK         0.4852 
      3 O         -48.9094  -29.5433    2.7659 O.2       0 UNK        -0.5216 
      4 N         -50.1629  -27.8582    1.9246 N.am      1 UNK        -0.4461 
      5 CA        -50.7259  -27.2996    3.1633 C.3       1 UNK         0.0864 
      6 C6        -51.5348  -28.3375    3.9880 C.3       14 UNK        -0.0898 
      7 S7        -52.7746  -27.5746    5.0855 S.3       14 UNK        -0.2598 
      8 C8        -51.9456  -27.7977    6.6854 C.3       14 UNK         0.0286 
      9 C9        -52.7653  -27.2386    7.8350 C.ar      14 UNK        -0.0844 
     10 C10       -52.7658  -25.8654    8.0920 C.ar      14 UNK        -0.0881 
     11 C11       -53.4931  -25.3444    9.1668 C.ar      14 UNK        -0.0643 
     12 C12       -54.2387  -26.2084    9.9742 C.ar      14 UNK        -0.0930 
     13 C13       -54.2261  -27.5883    9.7410 C.ar      14 UNK        -0.0827 
     14 C14       -53.4921  -28.0959    8.6652 C.ar      14 UNK        -0.1249 
     15 C15       -54.9798  -28.5361   10.6635 C.3       14 UNK         0.0141 
     16 S16       -54.3510  -28.4189   12.3651 S.3       14 UNK        -0.2313 
     17 C17       -54.7213  -30.0689   13.0483 C.3       14 UNK        -0.0915 
     18 CA        -53.4552  -30.9502   13.2575 C.3       13 UNK         0.0968 
     19 C         -52.9382  -31.6250   11.9512 C.2       13 UNK         0.5732 
     20 N         -53.7972  -32.3577   11.2537 N.am      13 UNK        -0.7310 
     21 O         -51.7759  -31.5216   11.5654 O.2       13 UNK        -0.5035 
     22 N         -52.4280  -30.2133   14.0054 N.am      13 UNK        -0.4233 
     23 C         -51.4173  -30.7449   14.6995 C.2       13 UNK         0.4989 
     24 O         -51.2348  -31.9564   14.8304 O.2       13 UNK        -0.4996 
     25 CA        -50.4723  -29.7618   15.4168 C.3       12 UNK         0.0216 
     26 CB        -49.1796  -29.5197   14.6201 C.3       12 UNK        -0.1964 
     27 N         -51.1052  -28.4771   15.7470 N.am      12 UNK        -0.4276 
     28 C         -51.9252  -28.3087   16.7957 C.2       12 UNK         0.5020 
     29 O         -52.2543  -29.2200   17.5564 O.2       12 UNK        -0.5489 
     30 CA        -52.4505  -26.8931   17.0688 C.3       11 UNK         0.0294 
     31 CB        -51.4079  -26.0811   17.8531 C.3       11 UNK        -0.2019 
     32 N         -52.7979  -26.1781   15.8417 N.am      11 UNK        -0.4493 
     33 C         -54.0372  -26.0540   15.3526 C.2       11 UNK         0.4932 
     34 O         -55.0361  -26.5583   15.8693 O.2       11 UNK        -0.5029 
     35 CA        -54.1646  -25.1985   14.0783 C.3       10 UNK         0.0280 
     36 CB        -55.6227  -24.9935   13.6147 C.3       10 UNK        -0.1976 
     37 N         -53.4570  -23.9184   14.1972 N.am      10 UNK        -0.4242 
     38 C         -53.7228  -22.9056   15.0329 C.2       10 UNK         0.5072 
     39 O         -54.6496  -22.8960   15.8458 O.2       10 UNK        -0.5224 
     40 CA        -52.7767  -21.6949   14.9166 C.3       9 UNK         0.0343 
     41 CB        -53.3512  -20.4196   15.5704 C.3       9 UNK        -0.2003 
     42 N         -51.4303  -21.9807   15.4283 N.am      9 UNK        -0.4272 
     43 C         -51.0755  -22.3280   16.6741 C.2       9 UNK         0.4988 
     44 O         -51.8715  -22.4864   17.6003 O.2       9 UNK        -0.5108 
     45 CA        -49.5622  -22.5106   16.9272 C.3       8 UNK         0.0248 
     46 CB        -49.2364  -22.7840   18.4084 C.3       8 UNK        -0.2001 
     47 N         -48.9713  -23.5758   16.1119 N.am      8 UNK        -0.4140 
     48 C         -48.7126  -23.5025   14.8002 C.2       8 UNK         0.5028 
     49 O         -48.9429  -22.4985   14.1211 O.2       8 UNK        -0.5428 
     50 CA        -48.1167  -24.7481   14.1129 C.3       7 UNK         0.0264 
     51 CB        -47.9317  -25.9751   15.0351 C.3       7 UNK        -0.1988 
     52 N         -48.8932  -25.1062   12.9236 N.am      7 UNK        -0.4454 
     53 C         -50.1984  -25.4122   12.8813 C.2       7 UNK         0.5027 
     54 O         -50.9055  -25.5443   13.8821 O.2       7 UNK        -0.5083 
     55 CA        -50.8002  -25.6283   11.4802 C.3       6 UNK         0.0844 
     56 C56       -50.9152  -24.3017   10.6805 C.3       14 UNK        -0.0967 
     57 S57       -52.5107  -23.4708   10.9862 S.3       14 UNK        -0.2604 
     58 C58       -53.4501  -23.8518    9.4680 C.3       14 UNK         0.0134 
     59 N         -50.0329  -26.6452   10.7651 N.am      6 UNK        -0.4116 
     60 C         -50.1099  -27.9577   11.0226 C.2       5 UNK         0.5034 
     61 O         -50.9194  -28.4490   11.8057 O.2       5 UNK        -0.5045 
     62 CA        -49.0888  -28.8738   10.3264 C.3       5 UNK         0.0224 
     63 CB        -49.7006  -29.5371    9.0849 C.3       5 UNK        -0.1978 
     64 N         -47.8680  -28.1566    9.9451 N.am      5 UNK        -0.4737 
     65 C         -46.8816  -27.8581   10.8043 C.2       4 UNK         0.5027 
     66 O         -46.8561  -28.2446   11.9720 O.2       4 UNK        -0.5211 
     67 CA        -45.7399  -26.9596   10.2910 C.3       4 UNK         0.0297 
     68 CB        -44.5702  -27.8181    9.7839 C.3       4 UNK        -0.1993 
     69 N         -46.1484  -26.0285    9.2351 N.am      4 UNK        -0.4486 
     70 C         -47.0597  -25.0555    9.3743 C.2       3 UNK         0.4961 
     71 O         -47.6217  -24.7955   10.4374 O.2       3 UNK        -0.5105 
     72 CA        -47.4553  -24.2676    8.1128 C.3       3 UNK         0.0299 
     73 CB        -46.7190  -22.9196    8.0745 C.3       3 UNK        -0.1972 
     74 N         -47.2336  -24.9809    6.8485 N.am      3 UNK        -0.4305 
     75 C         -47.8039  -26.1439    6.5027 C.2       2 UNK         0.5006 
     76 O         -48.5281  -26.8039    7.2507 O.2       2 UNK        -0.5106 
     77 CA        -47.4382  -26.6923    5.1141 C.3       2 UNK         0.0296 
     78 CB        -46.3717  -27.7919    5.2441 C.3       2 UNK        -0.2002 
     79 N         -48.5904  -27.2299    4.3880 N.am      2 UNK        -0.4032 
     80 C         -49.6720  -26.5396    4.0015 C.2       1 UNK         0.5000 
     81 O         -49.8356  -25.3398    4.2322 O.2       1 UNK        -0.5238 
     82 H82       -47.8053  -29.2098    0.3099 H         1 UNK         0.0889 
     83 H83       -49.3333  -28.6351   -0.3609 H         1 UNK         0.0889 
     84 H84       -49.1808  -30.3088    0.1770 H         1 UNK         0.0889 
     85 H85       -50.4382  -27.3663    1.0851 H         1 UNK         0.3028 
     86 H86       -51.4342  -26.5452    2.8154 H         1 UNK         0.0864 
     87 H87       -50.8771  -28.9988    4.5548 H         1 UNK         0.0720 
     88 H88       -52.0871  -28.9898    3.3097 H         1 UNK         0.0720 
     89 H89       -50.9757  -27.3028    6.6587 H         1 UNK         0.0814 
     90 H90       -51.7523  -28.8603    6.8395 H         1 UNK         0.0814 
     91 H91       -52.1873  -25.2059    7.4593 H         1 UNK         0.1469 
     92 H92       -54.7951  -25.8110   10.8114 H         1 UNK         0.1381 
     93 H93       -53.4747  -29.1614    8.4808 H         1 UNK         0.1206 
     94 H94       -54.8841  -29.5641   10.3109 H         1 UNK         0.0813 
     95 H95       -56.0438  -28.2967   10.6513 H         1 UNK         0.0813 
     96 H96       -55.2000  -29.9067   14.0151 H         1 UNK         0.0638 
     97 H97       -55.4740  -30.5706   12.4388 H         1 UNK         0.0638 
     98 H98       -53.7550  -31.7825   13.8968 H         1 UNK         0.0568 
     99 H99       -53.4771  -32.8100   10.4122 H         1 UNK         0.3450 
    100 H100      -54.7497  -32.4816   11.5576 H         1 UNK         0.3450 
    101 H101      -52.4462  -29.2125   13.8748 H         1 UNK         0.2987 
    102 H102      -50.1803  -30.2479   16.3506 H         1 UNK         0.0766 
    103 H103      -48.7608  -30.4566   14.2501 H         1 UNK         0.0798 
    104 H104      -48.4179  -29.0535   15.2446 H         1 UNK         0.0798 
    105 H105      -49.3394  -28.8723   13.7606 H         1 UNK         0.0798 
    106 H106      -50.9020  -27.6901   15.1457 H         1 UNK         0.3198 
    107 H107      -53.3357  -26.9893   17.7016 H         1 UNK         0.0843 
    108 H108      -51.8136  -25.1169   18.1578 H         1 UNK         0.0831 
    109 H109      -50.5085  -25.8982   17.2665 H         1 UNK         0.0831 
    110 H110      -51.1064  -26.6039   18.7619 H         1 UNK         0.0831 
    111 H111      -52.0381  -25.7755   15.2955 H         1 UNK         0.3133 
    112 H112      -53.6482  -25.7445   13.2891 H         1 UNK         0.0566 
    113 H113      -55.6690  -24.3939   12.7059 H         1 UNK         0.0814 
    114 H114      -56.0978  -25.9509   13.3974 H         1 UNK         0.0814 
    115 H115      -56.2263  -24.4981   14.3756 H         1 UNK         0.0814 
    116 H116      -52.6504  -23.8276   13.5941 H         1 UNK         0.3091 
    117 H117      -52.6624  -21.4863   13.8513 H         1 UNK         0.0702 
    118 H118      -52.6935  -19.5644   15.4157 H         1 UNK         0.0785 
    119 H119      -53.4969  -20.5401   16.6444 H         1 UNK         0.0785 
    120 H120      -54.3205  -20.1660   15.1393 H         1 UNK         0.0785 
    121 H121      -50.6753  -21.9378   14.7472 H         1 UNK         0.2998 
    122 H122      -49.0816  -21.5677   16.6574 H         1 UNK         0.0697 
    123 H123      -48.1604  -22.8329   18.5763 H         1 UNK         0.0825 
    124 H124      -49.6243  -21.9889   19.0467 H         1 UNK         0.0825 
    125 H125      -49.6735  -23.7211   18.7547 H         1 UNK         0.0825 
    126 H126      -48.7697  -24.4433   16.5858 H         1 UNK         0.3029 
    127 H127      -47.1298  -24.4515   13.7548 H         1 UNK         0.0897 
    128 H128      -47.4841  -26.8030   14.4845 H         1 UNK         0.0792 
    129 H129      -47.2611  -25.7518   15.8658 H         1 UNK         0.0792 
    130 H130      -48.8740  -26.3322   15.4496 H         1 UNK         0.0792 
    131 H131      -48.4027  -24.9951   12.0361 H         1 UNK         0.3086 
    132 H132      -51.8051  -26.0343   11.6168 H         1 UNK         0.0583 
    133 H133      -50.1057  -23.6066   10.9130 H         1 UNK         0.1020 
    134 H134      -50.8217  -24.4890    9.6104 H         1 UNK         0.1020 
    135 H135      -54.4684  -23.4771    9.5798 H         1 UNK         0.0694 
    136 H136      -53.0117  -23.3017    8.6339 H         1 UNK         0.0694 
    137 H137      -49.3017  -26.3173   10.1510 H         1 UNK         0.2989 
    138 H138      -48.8331  -29.6637   11.0369 H         1 UNK         0.1055 
    139 H139      -49.9069  -28.8052    8.3072 H         1 UNK         0.0806 
    140 H140      -50.6409  -30.0341    9.3295 H         1 UNK         0.0806 
    141 H141      -49.0321  -30.2900    8.6677 H         1 UNK         0.0806 
    142 H142      -47.8352  -27.7845    9.0015 H         1 UNK         0.3061 
    143 H143      -45.3886  -26.3653   11.1373 H         1 UNK         0.0734 
    144 H144      -43.7166  -27.2017    9.5014 H         1 UNK         0.0832 
    145 H145      -44.2277  -28.5056   10.5588 H         1 UNK         0.0832 
    146 H146      -44.8544  -28.4188    8.9189 H         1 UNK         0.0832 
    147 H147      -45.7387  -26.1655    8.3231 H         1 UNK         0.3156 
    148 H148      -48.5262  -24.0669    8.1858 H         1 UNK         0.0589 
    149 H149      -45.6412  -23.0501    7.9686 H         1 UNK         0.0808 
    150 H150      -47.0666  -22.2994    7.2481 H         1 UNK         0.0808 
    151 H151      -46.8898  -22.3552    8.9926 H         1 UNK         0.0808 
    152 H152      -46.6345  -24.5215    6.1771 H         1 UNK         0.3098 
    153 H153      -47.0266  -25.8802    4.5114 H         1 UNK         0.0720 
    154 H154      -46.7397  -28.6421    5.8206 H         1 UNK         0.0791 
    155 H155      -45.4788  -27.4179    5.7468 H         1 UNK         0.0791 
    156 H156      -46.0606  -28.1608    4.2664 H         1 UNK         0.0791 
    157 H157      -48.5436  -28.2037    4.1011 H         1 UNK         0.3028 
@<TRIPOS>BOND
     1    1    2 1    
     2    1   82 1    
     3    1   83 1    
     4    1   84 1    
     5    2    3 2    
     6    2    4 am   BACKBONE|DICT|INTERRES
     7    4    5 1    
     8    4   85 1    
     9    5    6 1    
    10    5   80 1    
    11    5   86 1    
    12    6    7 1    
    13    6   87 1    
    14    6   88 1    
    15    7    8 1    
    16    8    9 1    
    17    8   89 1    
    18    8   90 1    
    19    9   10 ar   
    20    9   14 ar   
    21   10   11 ar   
    22   10   91 1    
    23   11   12 ar   
    24   11   58 1    
    25   12   13 ar   
    26   12   92 1    
    27   13   14 ar   
    28   13   15 1    
    29   14   93 1    
    30   15   16 1    
    31   15   94 1    
    32   15   95 1    
    33   16   17 1    
    34   17   18 1    
    35   17   96 1    
    36   17   97 1    
    37   18   19 1    
    38   18   22 1    
    39   18   98 1    
    40   19   20 am   BACKBONE|DICT|INTERRES
    41   19   21 2    
    42   20   99 1    
    43   20  100 1    
    44   22   23 am   BACKBONE|DICT|INTERRES
    45   22  101 1    
    46   23   24 2    
    47   23   25 1    
    48   25   26 1    
    49   25   27 1    
    50   25  102 1    
    51   26  103 1    
    52   26  104 1    
    53   26  105 1    
    54   27   28 am   BACKBONE|DICT|INTERRES
    55   27  106 1    
    56   28   29 2    
    57   28   30 1    
    58   30   31 1    
    59   30   32 1    
    60   30  107 1    
    61   31  108 1    
    62   31  109 1    
    63   31  110 1    
    64   32   33 am   BACKBONE|DICT|INTERRES
    65   32  111 1    
    66   33   34 2    
    67   33   35 1    
    68   35   36 1    
    69   35   37 1    
    70   35  112 1    
    71   36  113 1    
    72   36  114 1    
    73   36  115 1    
    74   37   38 am   BACKBONE|DICT|INTERRES
    75   37  116 1    
    76   38   39 2    
    77   38   40 1    
    78   40   41 1    
    79   40   42 1    
    80   40  117 1    
    81   41  118 1    
    82   41  119 1    
    83   41  120 1    
    84   42   43 am   BACKBONE|DICT|INTERRES
    85   42  121 1    
    86   43   44 2    
    87   43   45 1    
    88   45   46 1    
    89   45   47 1    
    90   45  122 1    
    91   46  123 1    
    92   46  124 1    
    93   46  125 1    
    94   47   48 am   BACKBONE|DICT|INTERRES
    95   47  126 1    
    96   48   49 2    
    97   48   50 1    
    98   50   51 1    
    99   50   52 1    
   100   50  127 1    
   101   51  128 1    
   102   51  129 1    
   103   51  130 1    
   104   52   53 am   BACKBONE|DICT|INTERRES
   105   52  131 1    
   106   53   54 2    
   107   53   55 1    
   108   55   56 1    
   109   55   59 1    
   110   55  132 1    
   111   56   57 1    
   112   56  133 1    
   113   56  134 1    
   114   57   58 1    
   115   58  135 1    
   116   58  136 1    
   117   59   60 am   BACKBONE|DICT|INTERRES
   118   59  137 1    
   119   60   61 2    
   120   60   62 1    
   121   62   63 1    
   122   62   64 1    
   123   62  138 1    
   124   63  139 1    
   125   63  140 1    
   126   63  141 1    
   127   64   65 am   BACKBONE|DICT|INTERRES
   128   64  142 1    
   129   65   66 2    
   130   65   67 1    
   131   67   68 1    
   132   67   69 1    
   133   67  143 1    
   134   68  144 1    
   135   68  145 1    
   136   68  146 1    
   137   69   70 am   BACKBONE|DICT|INTERRES
   138   69  147 1    
   139   70   71 2    
   140   70   72 1    
   141   72   73 1    
   142   72   74 1    
   143   72  148 1    
   144   73  149 1    
   145   73  150 1    
   146   73  151 1    
   147   74   75 am   BACKBONE|DICT|INTERRES
   148   74  152 1    
   149   75   76 2    
   150   75   77 1    
   151   77   78 1    
   152   77   79 1    
   153   77  153 1    
   154   78  154 1    
   155   78  155 1    
   156   78  156 1    
   157   79   80 am   BACKBONE|DICT|INTERRES
   158   79  157 1    
   159   80   81 2    
@<TRIPOS>SUBSTRUCTURE
     1 UNK         1 GROUP             0       ****    0 ROOT    
