@<TRIPOS>MOLECULE
3R207
157   159    1
SMALL
USER_CHARGES


@<TRIPOS>ATOM
      1 CA        -51.9852  -25.6542    0.7962 C.3       0 UNK        -0.1975 
      2 C         -51.6228  -25.3404    2.2403 C.2       0 UNK         0.4852 
      3 O         -51.5726  -24.1687    2.6159 O.2       0 UNK        -0.5216 
      4 N         -51.3744  -26.3790    3.0510 N.am      1 UNK        -0.4461 
      5 CA        -50.9864  -26.2741    4.4631 C.3       1 UNK         0.0864 
      6 C6        -51.0856  -27.6537    5.1636 C.3       14 UNK        -0.0898 
      7 S7        -50.9946  -27.5665    6.9825 S.3       14 UNK        -0.2598 
      8 C8        -51.3536  -29.2980    7.4031 C.3       14 UNK         0.0286 
      9 C9        -51.0495  -29.6007    8.8629 C.ar      14 UNK        -0.0844 
     10 C10       -49.7604  -29.9840    9.2416 C.ar      14 UNK        -0.0881 
     11 C11       -49.4714  -30.3064   10.5698 C.ar      14 UNK        -0.0643 
     12 C12       -50.4919  -30.2585   11.5242 C.ar      14 UNK        -0.0930 
     13 C13       -51.7927  -29.8905   11.1582 C.ar      14 UNK        -0.0827 
     14 C14       -52.0587  -29.5416    9.8285 C.ar      14 UNK        -0.1249 
     15 C15       -52.8956  -29.8570   12.2102 C.3       14 UNK         0.0141 
     16 S16       -54.3979  -30.7563   11.7095 S.3       14 UNK        -0.2313 
     17 C17       -55.4492  -30.5352   13.1872 C.3       14 UNK        -0.0915 
     18 CA        -56.5079  -29.4155   12.9974 C.3       13 UNK         0.0968 
     19 C         -57.6001  -29.4358   14.1074 C.2       13 UNK         0.5732 
     20 N         -57.9545  -28.3163   14.7301 N.am      13 UNK        -0.7310 
     21 O         -58.1651  -30.4891   14.3936 O.2       13 UNK        -0.5035 
     22 N         -55.8670  -28.1018   12.8580 N.am      13 UNK        -0.4233 
     23 C         -56.1349  -27.2070   11.9002 C.2       13 UNK         0.4989 
     24 O         -56.9127  -27.4153   10.9672 O.2       13 UNK        -0.4996 
     25 CA        -55.4056  -25.8502   11.9908 C.3       12 UNK         0.0216 
     26 CB        -56.2180  -24.6965   11.3654 C.3       12 UNK        -0.1964 
     27 N         -54.9630  -25.4939   13.3454 N.am      12 UNK        -0.4276 
     28 C         -55.7206  -25.3291   14.4380 C.2       12 UNK         0.5020 
     29 O         -56.9439  -25.4854   14.4508 O.2       12 UNK        -0.5489 
     30 CA        -54.9699  -24.9811   15.7401 C.3       11 UNK         0.0294 
     31 CB        -55.8987  -24.9730   16.9722 C.3       11 UNK        -0.2019 
     32 N         -53.8016  -25.8335   16.0054 N.am      11 UNK        -0.4493 
     33 C         -53.7616  -27.1757   16.0462 C.2       11 UNK         0.4932 
     34 O         -54.7139  -27.8935   15.7382 O.2       11 UNK        -0.5029 
     35 CA        -52.4504  -27.8433   16.5078 C.3       10 UNK         0.0280 
     36 CB        -52.1255  -29.0939   15.6793 C.3       10 UNK        -0.1976 
     37 N         -51.2973  -26.9440   16.4555 N.am      10 UNK        -0.4242 
     38 C         -50.8276  -26.2285   17.4848 C.2       10 UNK         0.5072 
     39 O         -51.3118  -26.2499   18.6170 O.2       10 UNK        -0.5224 
     40 CA        -49.6293  -25.3070   17.1950 C.3       9 UNK         0.0343 
     41 CB        -48.3114  -26.0901   17.2963 C.3       9 UNK        -0.2003 
     42 N         -49.7061  -24.6336   15.8935 N.am      9 UNK        -0.4272 
     43 C         -50.6866  -23.7908   15.5321 C.2       9 UNK         0.4988 
     44 O         -51.6466  -23.5045   16.2490 O.2       9 UNK        -0.5108 
     45 CA        -50.6017  -23.1869   14.1225 C.3       8 UNK         0.0248 
     46 CB        -49.5541  -22.0634   14.0758 C.3       8 UNK        -0.2001 
     47 N         -50.3125  -24.1928   13.0980 N.am      8 UNK        -0.4140 
     48 C         -51.1453  -25.1940   12.7770 C.2       8 UNK         0.5028 
     49 O         -52.2590  -25.3376   13.2773 O.2       8 UNK        -0.5428 
     50 CA        -50.6461  -26.2424   11.7710 C.3       7 UNK         0.0264 
     51 CB        -50.7368  -25.7159   10.3339 C.3       7 UNK        -0.1988 
     52 N         -49.2860  -26.7002   12.0581 N.am      7 UNK        -0.4454 
     53 C         -48.9310  -27.3085   13.2012 C.2       7 UNK         0.5027 
     54 O         -49.7197  -27.5728   14.1086 O.2       7 UNK        -0.5083 
     55 CA        -47.4403  -27.6198   13.4153 C.3       6 UNK         0.0844 
     56 C56       -47.0593  -29.0623   13.0041 C.3       14 UNK        -0.0967 
     57 S57       -46.9367  -29.3472   11.2064 S.3       14 UNK        -0.2604 
     58 C58       -48.0660  -30.7536   10.9475 C.3       14 UNK         0.0134 
     59 N         -46.5754  -26.5853   12.8426 N.am      6 UNK        -0.4116 
     60 C         -46.4598  -25.3532   13.3595 C.2       5 UNK         0.5034 
     61 O         -47.0543  -24.9727   14.3703 O.2       5 UNK        -0.5045 
     62 CA        -45.5554  -24.3685   12.6018 C.3       5 UNK         0.0224 
     63 CB        -44.0810  -24.8017   12.6636 C.3       5 UNK        -0.1978 
     64 N         -45.9598  -24.1769   11.2064 N.am      5 UNK        -0.4737 
     65 C         -47.1438  -23.6821   10.8193 C.2       4 UNK         0.5027 
     66 O         -48.0379  -23.3564   11.5967 O.2       4 UNK        -0.5211 
     67 CA        -47.3847  -23.5256    9.3100 C.3       4 UNK         0.0297 
     68 CB        -46.9114  -22.1423    8.8362 C.3       4 UNK        -0.1993 
     69 N         -46.7775  -24.5608    8.4695 N.am      4 UNK        -0.4486 
     70 C         -46.9753  -25.8826    8.5795 C.2       3 UNK         0.4961 
     71 O         -47.5880  -26.4132    9.5074 O.2       3 UNK        -0.5105 
     72 CA        -46.4328  -26.7224    7.4133 C.3       3 UNK         0.0299 
     73 CB        -46.8174  -28.2103    7.5013 C.3       3 UNK        -0.1972 
     74 N         -46.9492  -26.1526    6.1723 N.am      3 UNK        -0.4305 
     75 C         -46.4300  -26.2771    4.9482 C.2       2 UNK         0.5006 
     76 O         -45.3891  -26.8916    4.7076 O.2       2 UNK        -0.5106 
     77 CA        -47.2274  -25.6114    3.8036 C.3       2 UNK         0.0296 
     78 CB        -46.6048  -25.8672    2.4179 C.3       2 UNK        -0.2002 
     79 N         -48.6328  -26.0358    3.7767 N.am      2 UNK        -0.4032 
     80 C         -49.5869  -25.6431    4.6352 C.2       1 UNK         0.5000 
     81 O         -49.3883  -24.8275    5.5390 O.2       1 UNK        -0.5238 
     82 H82       -52.9725  -25.2567    0.5626 H         1 UNK         0.0889 
     83 H83       -51.9970  -26.7264    0.6013 H         1 UNK         0.0889 
     84 H84       -51.2642  -25.1949    0.1206 H         1 UNK         0.0889 
     85 H85       -51.4494  -27.3170    2.6828 H         1 UNK         0.3028 
     86 H86       -51.7021  -25.6017    4.9417 H         1 UNK         0.0864 
     87 H87       -52.0385  -28.1225    4.9116 H         1 UNK         0.0720 
     88 H88       -50.3096  -28.3319    4.8029 H         1 UNK         0.0720 
     89 H89       -50.7635  -29.9570    6.7642 H         1 UNK         0.0814 
     90 H90       -52.4001  -29.5130    7.1812 H         1 UNK         0.0814 
     91 H91       -48.9787  -30.0446    8.4985 H         1 UNK         0.1469 
     92 H92       -50.2728  -30.5161   12.5513 H         1 UNK         0.1381 
     93 H93       -53.0587  -29.2469    9.5409 H         1 UNK         0.1206 
     94 H94       -53.1415  -28.8200   12.4407 H         1 UNK         0.0813 
     95 H95       -52.5399  -30.3212   13.1291 H         1 UNK         0.0813 
     96 H96       -54.8305  -30.3367   14.0640 H         1 UNK         0.0638 
     97 H97       -55.9339  -31.4954   13.3713 H         1 UNK         0.0638 
     98 H98       -57.0523  -29.6482   12.0808 H         1 UNK         0.0568 
     99 H99       -57.5144  -27.4281   14.5145 H         1 UNK         0.3450 
    100 H100      -58.6690  -28.3581   15.4382 H         1 UNK         0.3450 
    101 H101      -55.2787  -27.8283   13.6358 H         1 UNK         0.2987 
    102 H102      -54.4936  -25.9662   11.4033 H         1 UNK         0.0766 
    103 H103      -57.1762  -24.5595   11.8677 H         1 UNK         0.0798 
    104 H104      -55.6730  -23.7541   11.4187 H         1 UNK         0.0798 
    105 H105      -56.4270  -24.8876   10.3121 H         1 UNK         0.0798 
    106 H106      -53.9479  -25.3934   13.4468 H         1 UNK         0.3198 
    107 H107      -54.5855  -23.9685   15.6070 H         1 UNK         0.0843 
    108 H108      -56.3335  -25.9567   17.1539 H         1 UNK         0.0831 
    109 H109      -56.7233  -24.2719   16.8374 H         1 UNK         0.0831 
    110 H110      -55.3623  -24.6714   17.8718 H         1 UNK         0.0831 
    111 H111      -52.9457  -25.3321   16.2125 H         1 UNK         0.3133 
    112 H112      -52.6151  -28.1679   17.5371 H         1 UNK         0.0566 
    113 H113      -52.9409  -29.8177   15.7014 H         1 UNK         0.0814 
    114 H114      -51.9412  -28.8227   14.6423 H         1 UNK         0.0814 
    115 H115      -51.2345  -29.5977   16.0542 H         1 UNK         0.0814 
    116 H116      -50.8056  -26.9018   15.5653 H         1 UNK         0.3091 
    117 H117      -49.6207  -24.5294   17.9616 H         1 UNK         0.0702 
    118 H118      -47.4490  -25.4382   17.1552 H         1 UNK         0.0785 
    119 H119      -48.2580  -26.8838   16.5512 H         1 UNK         0.0785 
    120 H120      -48.2088  -26.5563   18.2771 H         1 UNK         0.0785 
    121 H121      -48.9399  -24.7989   15.2483 H         1 UNK         0.2998 
    122 H122      -51.5750  -22.7490   13.8910 H         1 UNK         0.0697 
    123 H123      -48.5458  -22.4430   14.2472 H         1 UNK         0.0825 
    124 H124      -49.7546  -21.3079   14.8367 H         1 UNK         0.0825 
    125 H125      -49.5594  -21.5590   13.1094 H         1 UNK         0.0825 
    126 H126      -49.4230  -24.1034   12.6103 H         1 UNK         0.3029 
    127 H127      -51.3009  -27.1118   11.8506 H         1 UNK         0.0897 
    128 H128      -50.1299  -24.8230   10.1916 H         1 UNK         0.0792 
    129 H129      -51.7650  -25.4617   10.0740 H         1 UNK         0.0792 
    130 H130      -50.3971  -26.4683    9.6230 H         1 UNK         0.0792 
    131 H131      -48.5894  -26.5588   11.3321 H         1 UNK         0.3086 
    132 H132      -47.2875  -27.5799   14.4958 H         1 UNK         0.0583 
    133 H133      -46.0867  -29.3068   13.4336 H         1 UNK         0.1020 
    134 H134      -47.7543  -29.7743   13.4532 H         1 UNK         0.1020 
    135 H135      -47.6615  -31.3701   10.1434 H         1 UNK         0.0694 
    136 H136      -48.0853  -31.3964   11.8286 H         1 UNK         0.0694 
    137 H137      -46.1095  -26.8119   11.9756 H         1 UNK         0.2989 
    138 H138      -45.6439  -23.4022   13.1039 H         1 UNK         0.1055 
    139 H139      -43.7632  -24.9570   13.6958 H         1 UNK         0.0806 
    140 H140      -43.4273  -24.0399   12.2383 H         1 UNK         0.0806 
    141 H141      -43.9039  -25.7329   12.1242 H         1 UNK         0.0806 
    142 H142      -45.2932  -24.4291   10.4913 H         1 UNK         0.3061 
    143 H143      -48.4623  -23.5808    9.1481 H         1 UNK         0.0734 
    144 H144      -45.8296  -22.0332    8.9223 H         1 UNK         0.0832 
    145 H145      -47.1878  -21.9608    7.7974 H         1 UNK         0.0832 
    146 H146      -47.3667  -21.3495    9.4320 H         1 UNK         0.0832 
    147 H147      -46.2487  -24.2332    7.6737 H         1 UNK         0.3156 
    148 H148      -45.3446  -26.6366    7.4265 H         1 UNK         0.0589 
    149 H149      -47.8999  -28.3336    7.4800 H         1 UNK         0.0808 
    150 H150      -46.3977  -28.7833    6.6748 H         1 UNK         0.0808 
    151 H151      -46.4477  -28.6568    8.4235 H         1 UNK         0.0808 
    152 H152      -47.8161  -25.6236    6.2564 H         1 UNK         0.3098 
    153 H153      -47.1984  -24.5345    3.9831 H         1 UNK         0.0720 
    154 H154      -47.1522  -25.3435    1.6339 H         1 UNK         0.0791 
    155 H155      -46.5946  -26.9293    2.1694 H         1 UNK         0.0791 
    156 H156      -45.5737  -25.5131    2.3804 H         1 UNK         0.0791 
    157 H157      -48.8797  -26.7189    3.0757 H         1 UNK         0.3028 
@<TRIPOS>BOND
     1    1    2 1    
     2    1   82 1    
     3    1   83 1    
     4    1   84 1    
     5    2    3 2    
     6    2    4 am   BACKBONE|DICT|INTERRES
     7    4    5 1    
     8    4   85 1    
     9    5    6 1    
    10    5   80 1    
    11    5   86 1    
    12    6    7 1    
    13    6   87 1    
    14    6   88 1    
    15    7    8 1    
    16    8    9 1    
    17    8   89 1    
    18    8   90 1    
    19    9   10 ar   
    20    9   14 ar   
    21   10   11 ar   
    22   10   91 1    
    23   11   12 ar   
    24   11   58 1    
    25   12   13 ar   
    26   12   92 1    
    27   13   14 ar   
    28   13   15 1    
    29   14   93 1    
    30   15   16 1    
    31   15   94 1    
    32   15   95 1    
    33   16   17 1    
    34   17   18 1    
    35   17   96 1    
    36   17   97 1    
    37   18   19 1    
    38   18   22 1    
    39   18   98 1    
    40   19   20 am   BACKBONE|DICT|INTERRES
    41   19   21 2    
    42   20   99 1    
    43   20  100 1    
    44   22   23 am   BACKBONE|DICT|INTERRES
    45   22  101 1    
    46   23   24 2    
    47   23   25 1    
    48   25   26 1    
    49   25   27 1    
    50   25  102 1    
    51   26  103 1    
    52   26  104 1    
    53   26  105 1    
    54   27   28 am   BACKBONE|DICT|INTERRES
    55   27  106 1    
    56   28   29 2    
    57   28   30 1    
    58   30   31 1    
    59   30   32 1    
    60   30  107 1    
    61   31  108 1    
    62   31  109 1    
    63   31  110 1    
    64   32   33 am   BACKBONE|DICT|INTERRES
    65   32  111 1    
    66   33   34 2    
    67   33   35 1    
    68   35   36 1    
    69   35   37 1    
    70   35  112 1    
    71   36  113 1    
    72   36  114 1    
    73   36  115 1    
    74   37   38 am   BACKBONE|DICT|INTERRES
    75   37  116 1    
    76   38   39 2    
    77   38   40 1    
    78   40   41 1    
    79   40   42 1    
    80   40  117 1    
    81   41  118 1    
    82   41  119 1    
    83   41  120 1    
    84   42   43 am   BACKBONE|DICT|INTERRES
    85   42  121 1    
    86   43   44 2    
    87   43   45 1    
    88   45   46 1    
    89   45   47 1    
    90   45  122 1    
    91   46  123 1    
    92   46  124 1    
    93   46  125 1    
    94   47   48 am   BACKBONE|DICT|INTERRES
    95   47  126 1    
    96   48   49 2    
    97   48   50 1    
    98   50   51 1    
    99   50   52 1    
   100   50  127 1    
   101   51  128 1    
   102   51  129 1    
   103   51  130 1    
   104   52   53 am   BACKBONE|DICT|INTERRES
   105   52  131 1    
   106   53   54 2    
   107   53   55 1    
   108   55   56 1    
   109   55   59 1    
   110   55  132 1    
   111   56   57 1    
   112   56  133 1    
   113   56  134 1    
   114   57   58 1    
   115   58  135 1    
   116   58  136 1    
   117   59   60 am   BACKBONE|DICT|INTERRES
   118   59  137 1    
   119   60   61 2    
   120   60   62 1    
   121   62   63 1    
   122   62   64 1    
   123   62  138 1    
   124   63  139 1    
   125   63  140 1    
   126   63  141 1    
   127   64   65 am   BACKBONE|DICT|INTERRES
   128   64  142 1    
   129   65   66 2    
   130   65   67 1    
   131   67   68 1    
   132   67   69 1    
   133   67  143 1    
   134   68  144 1    
   135   68  145 1    
   136   68  146 1    
   137   69   70 am   BACKBONE|DICT|INTERRES
   138   69  147 1    
   139   70   71 2    
   140   70   72 1    
   141   72   73 1    
   142   72   74 1    
   143   72  148 1    
   144   73  149 1    
   145   73  150 1    
   146   73  151 1    
   147   74   75 am   BACKBONE|DICT|INTERRES
   148   74  152 1    
   149   75   76 2    
   150   75   77 1    
   151   77   78 1    
   152   77   79 1    
   153   77  153 1    
   154   78  154 1    
   155   78  155 1    
   156   78  156 1    
   157   79   80 am   BACKBONE|DICT|INTERRES
   158   79  157 1    
   159   80   81 2    
@<TRIPOS>SUBSTRUCTURE
     1 UNK         1 GROUP             0       ****    0 ROOT    
