@<TRIPOS>MOLECULE
3R207
157   159    1
SMALL
USER_CHARGES


@<TRIPOS>ATOM
      1 CA        -45.5695  -29.9410    9.4344 C.3       0 UNK        -0.1975 
      2 C         -46.2503  -29.9393    8.0738 C.2       0 UNK         0.4852 
      3 O         -45.5648  -29.8909    7.0534 O.2       0 UNK        -0.5216 
      4 N         -47.5891  -30.0023    8.0507 N.am      1 UNK        -0.4461 
      5 CA        -48.4130  -30.0831    6.8386 C.3       1 UNK         0.0864 
      6 C6        -49.8816  -30.4717    7.1618 C.3       14 UNK        -0.0898 
      7 S7        -50.7319  -29.3429    8.3280 S.3       14 UNK        -0.2598 
      8 C8        -52.1132  -28.7624    7.2948 C.3       14 UNK         0.0286 
      9 C9        -52.7143  -27.4735    7.8331 C.ar      14 UNK        -0.0844 
     10 C10       -52.3210  -26.2458    7.2986 C.ar      14 UNK        -0.0881 
     11 C11       -52.8790  -25.0549    7.7652 C.ar      14 UNK        -0.0643 
     12 C12       -53.8525  -25.0973    8.7673 C.ar      14 UNK        -0.0930 
     13 C13       -54.2582  -26.3183    9.3177 C.ar      14 UNK        -0.0827 
     14 C14       -53.6762  -27.5032    8.8462 C.ar      14 UNK        -0.1249 
     15 C15       -55.2967  -26.3206   10.4391 C.3       14 UNK         0.0141 
     16 S16       -56.6046  -27.5778   10.2458 S.3       14 UNK        -0.2313 
     17 C17       -55.8603  -29.0304   11.0649 C.3       14 UNK        -0.0915 
     18 CA        -56.6607  -29.5016   12.3050 C.3       13 UNK         0.0968 
     19 C         -56.1468  -30.8815   12.8143 C.2       13 UNK         0.5732 
     20 N         -55.6932  -31.0255   14.0546 N.am      13 UNK        -0.7310 
     21 O         -56.1724  -31.8551   12.0651 O.2       13 UNK        -0.5035 
     22 N         -56.7187  -28.4623   13.3443 N.am      13 UNK        -0.4233 
     23 C         -57.6956  -28.3663   14.2561 C.2       13 UNK         0.4989 
     24 O         -58.7042  -29.0751   14.2481 O.2       13 UNK        -0.4996 
     25 CA        -57.5166  -27.3082   15.3674 C.3       12 UNK         0.0216 
     26 CB        -58.3291  -27.6424   16.6372 C.3       12 UNK        -0.1964 
     27 N         -56.1145  -27.0390   15.7184 N.am      12 UNK        -0.4276 
     28 C         -55.1971  -27.9297   16.1229 C.2       12 UNK         0.5020 
     29 O         -55.4074  -29.1378   16.2513 O.2       12 UNK        -0.5489 
     30 CA        -53.7879  -27.3795   16.3854 C.3       11 UNK         0.0294 
     31 CB        -53.3445  -27.6558   17.8310 C.3       11 UNK        -0.2019 
     32 N         -52.8039  -27.9454   15.4621 N.am      11 UNK        -0.4493 
     33 C         -52.8221  -27.8329   14.1280 C.2       11 UNK         0.4932 
     34 O         -53.7088  -27.2449   13.5068 O.2       11 UNK        -0.5029 
     35 CA        -51.6182  -28.4367   13.3791 C.3       10 UNK         0.0280 
     36 CB        -51.6986  -28.2360   11.8542 C.3       10 UNK        -0.1976 
     37 N         -50.3645  -27.8513   13.8549 N.am      10 UNK        -0.4242 
     38 C         -49.7028  -28.2101   14.9640 C.2       10 UNK         0.5072 
     39 O         -50.0746  -29.1135   15.7145 O.2       10 UNK        -0.5224 
     40 CA        -48.4560  -27.3943   15.3265 C.3       9 UNK         0.0343 
     41 CB        -47.2521  -27.8111   14.4662 C.3       9 UNK        -0.2003 
     42 N         -48.7195  -25.9656   15.1525 N.am      9 UNK        -0.4272 
     43 C         -48.6440  -25.0459   16.1218 C.2       9 UNK         0.4988 
     44 O         -48.2558  -25.2759   17.2679 O.2       9 UNK        -0.5108 
     45 CA        -49.0839  -23.6199   15.7514 C.3       8 UNK         0.0248 
     46 CB        -47.9352  -22.8646   15.0627 C.3       8 UNK        -0.2001 
     47 N         -50.2683  -23.5812   14.8913 N.am      8 UNK        -0.4140 
     48 C         -51.4968  -24.0038   15.2156 C.2       8 UNK         0.5028 
     49 O         -51.7843  -24.4721   16.3167 O.2       8 UNK        -0.5428 
     50 CA        -52.6034  -23.8929   14.1447 C.3       7 UNK         0.0264 
     51 CB        -53.3974  -22.5823   14.3068 C.3       7 UNK        -0.1988 
     52 N         -52.1600  -24.0827   12.7531 N.am      7 UNK        -0.4454 
     53 C         -51.3326  -23.3171   12.0249 C.2       7 UNK         0.5027 
     54 O         -50.8084  -22.2808   12.4374 O.2       7 UNK        -0.5083 
     55 CA        -50.9728  -23.8301   10.6175 C.3       6 UNK         0.0844 
     56 C56       -51.2471  -22.7328    9.5562 C.3       14 UNK        -0.0967 
     57 S57       -50.8019  -23.2357    7.8574 S.3       14 UNK        -0.2604 
     58 C58       -52.4187  -23.7283    7.1827 C.3       14 UNK         0.0134 
     59 N         -49.5931  -24.3203   10.5439 N.am      6 UNK        -0.4116 
     60 C         -48.9815  -25.1824   11.3679 C.2       5 UNK         0.5034 
     61 O         -49.4786  -25.6438   12.3966 O.2       5 UNK        -0.5045 
     62 CA        -47.5829  -25.6634   10.9591 C.3       5 UNK         0.0224 
     63 CB        -47.6678  -27.1014   10.4254 C.3       5 UNK        -0.1978 
     64 N         -46.9402  -24.8312    9.9403 N.am      5 UNK        -0.4737 
     65 C         -46.3082  -23.6732   10.1712 C.2       4 UNK         0.5027 
     66 O         -46.2626  -23.1382   11.2790 O.2       4 UNK        -0.5211 
     67 CA        -45.6269  -22.9966    8.9606 C.3       4 UNK         0.0297 
     68 CB        -44.3009  -22.3070    9.3447 C.3       4 UNK        -0.1993 
     69 N         -45.4467  -23.8880    7.8022 N.am      4 UNK        -0.4486 
     70 C         -44.6874  -24.9912    7.7142 C.2       3 UNK         0.4961 
     71 O         -43.9564  -25.3992    8.6173 O.2       3 UNK        -0.5105 
     72 CA        -44.8381  -25.8075    6.4140 C.3       3 UNK         0.0299 
     73 CB        -43.8290  -26.9669    6.3242 C.3       3 UNK        -0.1972 
     74 N         -46.1976  -26.3453    6.2841 N.am      3 UNK        -0.4305 
     75 C         -47.2734  -25.6383    5.9078 C.2       2 UNK         0.5006 
     76 O         -47.2095  -24.4521    5.5808 O.2       2 UNK        -0.5106 
     77 CA        -48.6570  -26.3098    5.9687 C.3       2 UNK         0.0296 
     78 CB        -49.3843  -26.2381    4.6087 C.3       2 UNK        -0.2002 
     79 N         -48.6623  -27.6675    6.5331 N.am      2 UNK        -0.4032 
     80 C         -48.2959  -28.8210    5.9550 C.2       1 UNK         0.5000 
     81 O         -47.8544  -28.9152    4.8092 O.2       1 UNK        -0.5238 
     82 H82       -44.9362  -30.8223    9.5317 H         1 UNK         0.0889 
     83 H83       -46.2889  -29.9514   10.2529 H         1 UNK         0.0889 
     84 H84       -44.9387  -29.0588    9.5411 H         1 UNK         0.0889 
     85 H85       -48.1014  -30.0422    8.9207 H         1 UNK         0.3028 
     86 H86       -48.0012  -30.9023    6.2443 H         1 UNK         0.0864 
     87 H87       -50.4576  -30.5681    6.2397 H         1 UNK         0.0720 
     88 H88       -49.8965  -31.4667    7.6093 H         1 UNK         0.0720 
     89 H89       -52.8770  -29.5399    7.2441 H         1 UNK         0.0814 
     90 H90       -51.7677  -28.6047    6.2717 H         1 UNK         0.0814 
     91 H91       -51.5773  -26.2117    6.5175 H         1 UNK         0.1469 
     92 H92       -54.2851  -24.1739    9.1273 H         1 UNK         0.1381 
     93 H93       -53.9677  -28.4574    9.2566 H         1 UNK         0.1206 
     94 H94       -55.7910  -25.3494   10.4888 H         1 UNK         0.0813 
     95 H95       -54.7937  -26.4452   11.3953 H         1 UNK         0.0813 
     96 H96       -54.8337  -28.8109   11.3554 H         1 UNK         0.0638 
     97 H97       -55.8041  -29.8230   10.3165 H         1 UNK         0.0638 
     98 H98       -57.6814  -29.6882   11.9658 H         1 UNK         0.0568 
     99 H99       -55.3768  -31.9340   14.3519 H         1 UNK         0.3450 
    100 H100      -55.6763  -30.2524   14.7140 H         1 UNK         0.3450 
    101 H101      -55.9007  -27.8723   13.4293 H         1 UNK         0.2987 
    102 H102      -57.9130  -26.3781   14.9577 H         1 UNK         0.0766 
    103 H103      -59.3950  -27.7121   16.4167 H         1 UNK         0.0798 
    104 H104      -58.2091  -26.8727   17.3996 H         1 UNK         0.0798 
    105 H105      -58.0235  -28.5949   17.0717 H         1 UNK         0.0798 
    106 H106      -55.8212  -26.0779   15.6078 H         1 UNK         0.3198 
    107 H107      -53.7960  -26.2983   16.2379 H         1 UNK         0.0843 
    108 H108      -53.2666  -28.7251   18.0326 H         1 UNK         0.0831 
    109 H109      -54.0576  -27.2399   18.5439 H         1 UNK         0.0831 
    110 H110      -52.3756  -27.2014   18.0404 H         1 UNK         0.0831 
    111 H111      -52.0277  -28.4533   15.8724 H         1 UNK         0.3133 
    112 H112      -51.6097  -29.5106   13.5763 H         1 UNK         0.0566 
    113 H113      -50.8150  -28.6339   11.3554 H         1 UNK         0.0814 
    114 H114      -51.7865  -27.1839   11.5813 H         1 UNK         0.0814 
    115 H115      -52.5589  -28.7561   11.4362 H         1 UNK         0.0814 
    116 H116      -50.0110  -27.0710   13.3049 H         1 UNK         0.3091 
    117 H117      -48.2183  -27.6149   16.3693 H         1 UNK         0.0702 
    118 H118      -47.0431  -28.8759   14.5772 H         1 UNK         0.0785 
    119 H119      -46.3523  -27.2711   14.7612 H         1 UNK         0.0785 
    120 H120      -47.4231  -27.6199   13.4081 H         1 UNK         0.0785 
    121 H121      -49.0540  -25.6737   14.2388 H         1 UNK         0.2998 
    122 H122      -49.3321  -23.0983   16.6780 H         1 UNK         0.0697 
    123 H123      -47.6679  -23.3169   14.1061 H         1 UNK         0.0825 
    124 H124      -47.0392  -22.8633   15.6850 H         1 UNK         0.0825 
    125 H125      -48.2005  -21.8237   14.8764 H         1 UNK         0.0825 
    126 H126      -50.1621  -23.1535   13.9758 H         1 UNK         0.3029 
    127 H127      -53.2954  -24.7124   14.3407 H         1 UNK         0.0897 
    128 H128      -52.7732  -21.7026   14.1478 H         1 UNK         0.0792 
    129 H129      -53.8146  -22.5035   15.3117 H         1 UNK         0.0792 
    130 H130      -54.2308  -22.5344   13.6059 H         1 UNK         0.0792 
    131 H131      -52.4824  -24.9443   12.3335 H         1 UNK         0.3086 
    132 H132      -51.6106  -24.6866   10.3949 H         1 UNK         0.0583 
    133 H133      -52.2955  -22.4296    9.5809 H         1 UNK         0.1020 
    134 H134      -50.6744  -21.8316    9.7853 H         1 UNK         0.1020 
    135 H135      -53.1537  -22.9425    7.3637 H         1 UNK         0.0694 
    136 H136      -52.3329  -23.8200    6.0988 H         1 UNK         0.0694 
    137 H137      -49.0755  -24.0064    9.7374 H         1 UNK         0.2989 
    138 H138      -46.9620  -25.6590   11.8580 H         1 UNK         0.1055 
    139 H139      -48.2664  -27.1617    9.5165 H         1 UNK         0.0806 
    140 H140      -48.1223  -27.7737   11.1541 H         1 UNK         0.0806 
    141 H141      -46.6738  -27.4850   10.2037 H         1 UNK         0.0806 
    142 H142      -46.9054  -25.1995    9.0023 H         1 UNK         0.3061 
    143 H143      -46.3165  -22.2178    8.6317 H         1 UNK         0.0734 
    144 H144      -43.5817  -23.0127    9.7610 H         1 UNK         0.0832 
    145 H145      -43.8392  -21.8249    8.4831 H         1 UNK         0.0832 
    146 H146      -44.4654  -21.5339   10.0963 H         1 UNK         0.0832 
    147 H147      -46.0417  -23.6915    7.0006 H         1 UNK         0.3156 
    148 H148      -44.6416  -25.1339    5.5769 H         1 UNK         0.0589 
    149 H149      -43.9375  -27.5175    5.3896 H         1 UNK         0.0808 
    150 H150      -42.8042  -26.5954    6.3646 H         1 UNK         0.0808 
    151 H151      -43.9504  -27.6751    7.1446 H         1 UNK         0.0808 
    152 H152      -46.3210  -27.3192    6.5232 H         1 UNK         0.3098 
    153 H153      -49.2349  -25.7106    6.6734 H         1 UNK         0.0720 
    154 H154      -48.7860  -26.6694    3.8056 H         1 UNK         0.0791 
    155 H155      -49.5883  -25.2024    4.3339 H         1 UNK         0.0791 
    156 H156      -50.3388  -26.7629    4.6295 H         1 UNK         0.0791 
    157 H157      -49.0328  -27.7431    7.4713 H         1 UNK         0.3028 
@<TRIPOS>BOND
     1    1    2 1    
     2    1   82 1    
     3    1   83 1    
     4    1   84 1    
     5    2    3 2    
     6    2    4 am   BACKBONE|DICT|INTERRES
     7    4    5 1    
     8    4   85 1    
     9    5    6 1    
    10    5   80 1    
    11    5   86 1    
    12    6    7 1    
    13    6   87 1    
    14    6   88 1    
    15    7    8 1    
    16    8    9 1    
    17    8   89 1    
    18    8   90 1    
    19    9   10 ar   
    20    9   14 ar   
    21   10   11 ar   
    22   10   91 1    
    23   11   12 ar   
    24   11   58 1    
    25   12   13 ar   
    26   12   92 1    
    27   13   14 ar   
    28   13   15 1    
    29   14   93 1    
    30   15   16 1    
    31   15   94 1    
    32   15   95 1    
    33   16   17 1    
    34   17   18 1    
    35   17   96 1    
    36   17   97 1    
    37   18   19 1    
    38   18   22 1    
    39   18   98 1    
    40   19   20 am   BACKBONE|DICT|INTERRES
    41   19   21 2    
    42   20   99 1    
    43   20  100 1    
    44   22   23 am   BACKBONE|DICT|INTERRES
    45   22  101 1    
    46   23   24 2    
    47   23   25 1    
    48   25   26 1    
    49   25   27 1    
    50   25  102 1    
    51   26  103 1    
    52   26  104 1    
    53   26  105 1    
    54   27   28 am   BACKBONE|DICT|INTERRES
    55   27  106 1    
    56   28   29 2    
    57   28   30 1    
    58   30   31 1    
    59   30   32 1    
    60   30  107 1    
    61   31  108 1    
    62   31  109 1    
    63   31  110 1    
    64   32   33 am   BACKBONE|DICT|INTERRES
    65   32  111 1    
    66   33   34 2    
    67   33   35 1    
    68   35   36 1    
    69   35   37 1    
    70   35  112 1    
    71   36  113 1    
    72   36  114 1    
    73   36  115 1    
    74   37   38 am   BACKBONE|DICT|INTERRES
    75   37  116 1    
    76   38   39 2    
    77   38   40 1    
    78   40   41 1    
    79   40   42 1    
    80   40  117 1    
    81   41  118 1    
    82   41  119 1    
    83   41  120 1    
    84   42   43 am   BACKBONE|DICT|INTERRES
    85   42  121 1    
    86   43   44 2    
    87   43   45 1    
    88   45   46 1    
    89   45   47 1    
    90   45  122 1    
    91   46  123 1    
    92   46  124 1    
    93   46  125 1    
    94   47   48 am   BACKBONE|DICT|INTERRES
    95   47  126 1    
    96   48   49 2    
    97   48   50 1    
    98   50   51 1    
    99   50   52 1    
   100   50  127 1    
   101   51  128 1    
   102   51  129 1    
   103   51  130 1    
   104   52   53 am   BACKBONE|DICT|INTERRES
   105   52  131 1    
   106   53   54 2    
   107   53   55 1    
   108   55   56 1    
   109   55   59 1    
   110   55  132 1    
   111   56   57 1    
   112   56  133 1    
   113   56  134 1    
   114   57   58 1    
   115   58  135 1    
   116   58  136 1    
   117   59   60 am   BACKBONE|DICT|INTERRES
   118   59  137 1    
   119   60   61 2    
   120   60   62 1    
   121   62   63 1    
   122   62   64 1    
   123   62  138 1    
   124   63  139 1    
   125   63  140 1    
   126   63  141 1    
   127   64   65 am   BACKBONE|DICT|INTERRES
   128   64  142 1    
   129   65   66 2    
   130   65   67 1    
   131   67   68 1    
   132   67   69 1    
   133   67  143 1    
   134   68  144 1    
   135   68  145 1    
   136   68  146 1    
   137   69   70 am   BACKBONE|DICT|INTERRES
   138   69  147 1    
   139   70   71 2    
   140   70   72 1    
   141   72   73 1    
   142   72   74 1    
   143   72  148 1    
   144   73  149 1    
   145   73  150 1    
   146   73  151 1    
   147   74   75 am   BACKBONE|DICT|INTERRES
   148   74  152 1    
   149   75   76 2    
   150   75   77 1    
   151   77   78 1    
   152   77   79 1    
   153   77  153 1    
   154   78  154 1    
   155   78  155 1    
   156   78  156 1    
   157   79   80 am   BACKBONE|DICT|INTERRES
   158   79  157 1    
   159   80   81 2    
@<TRIPOS>SUBSTRUCTURE
     1 UNK         1 GROUP             0       ****    0 ROOT    
