@<TRIPOS>MOLECULE
3R207
157   159    1
SMALL
USER_CHARGES


@<TRIPOS>ATOM
      1 CA        -52.8658  -33.0394    6.3695 C.3       0 UNK        -0.1975 
      2 C         -51.7078  -32.1103    6.0363 C.2       0 UNK         0.4852 
      3 O         -50.5496  -32.5185    6.1362 O.2       0 UNK        -0.5216 
      4 N         -52.0107  -30.8712    5.6272 N.am      1 UNK        -0.4461 
      5 CA        -51.0256  -29.8204    5.3495 C.3       1 UNK         0.0864 
      6 C6        -51.5758  -28.7890    4.3136 C.3       14 UNK        -0.0898 
      7 S7        -51.0740  -27.0335    4.4720 S.3       14 UNK        -0.2598 
      8 C8        -52.6866  -26.1860    4.5509 C.3       14 UNK         0.0286 
      9 C9        -53.3879  -26.4093    5.8833 C.ar      14 UNK        -0.0844 
     10 C10       -53.0833  -25.5967    6.9786 C.ar      14 UNK        -0.0881 
     11 C11       -53.7264  -25.7868    8.2051 C.ar      14 UNK        -0.0643 
     12 C12       -54.6697  -26.8088    8.3374 C.ar      14 UNK        -0.0930 
     13 C13       -54.9766  -27.6341    7.2518 C.ar      14 UNK        -0.0827 
     14 C14       -54.3484  -27.4163    6.0224 C.ar      14 UNK        -0.1249 
     15 C15       -55.9744  -28.7695    7.4079 C.3       14 UNK         0.0141 
     16 S16       -55.1075  -30.3669    7.5306 S.3       14 UNK        -0.2313 
     17 C17       -56.0741  -31.2295    8.8180 C.3       14 UNK        -0.0915 
     18 CA        -55.3729  -31.2644   10.2046 C.3       13 UNK         0.0968 
     19 C         -54.2035  -32.2931   10.2675 C.2       13 UNK         0.5732 
     20 N         -52.9975  -31.9180   10.6793 N.am      13 UNK        -0.7310 
     21 O         -54.4005  -33.4649    9.9546 O.2       13 UNK        -0.5035 
     22 N         -55.0175  -29.9123   10.6596 N.am      13 UNK        -0.4233 
     23 C         -54.9479  -29.5257   11.9366 C.2       13 UNK         0.4989 
     24 O         -55.2739  -30.2307   12.8948 O.2       13 UNK        -0.4996 
     25 CA        -54.4513  -28.0915   12.1745 C.3       12 UNK         0.0216 
     26 CB        -55.6312  -27.1128   12.2892 C.3       12 UNK        -0.1964 
     27 N         -53.6259  -27.9901   13.3771 N.am      12 UNK        -0.4276 
     28 C         -52.4248  -28.5566   13.5408 C.2       12 UNK         0.5020 
     29 O         -51.8481  -29.1978   12.6598 O.2       12 UNK        -0.5489 
     30 CA        -51.7665  -28.3673   14.9231 C.3       11 UNK         0.0294 
     31 CB        -50.3743  -29.0140   15.0129 C.3       11 UNK        -0.2019 
     32 N         -51.6527  -26.9565   15.3044 N.am      11 UNK        -0.4493 
     33 C         -52.6451  -26.2058   15.8039 C.2       11 UNK         0.4932 
     34 O         -53.8005  -26.6172   15.9271 O.2       11 UNK        -0.5029 
     35 CA        -52.3015  -24.7563   16.2065 C.3       10 UNK         0.0280 
     36 CB        -53.2450  -24.2003   17.2950 C.3       10 UNK        -0.1976 
     37 N         -50.8893  -24.5629   16.5777 N.am      10 UNK        -0.4242 
     38 C         -50.2496  -25.1537   17.6003 C.2       10 UNK         0.5072 
     39 O         -50.8060  -25.9115   18.3970 O.2       10 UNK        -0.5224 
     40 CA        -48.7466  -24.8845   17.7854 C.3       9 UNK         0.0343 
     41 CB        -47.9661  -26.2005   17.9770 C.3       9 UNK        -0.2003 
     42 N         -48.1204  -24.1313   16.6919 N.am      9 UNK        -0.4272 
     43 C         -47.1841  -23.1913   16.8940 C.2       9 UNK         0.4988 
     44 O         -46.9216  -22.7116   17.9982 O.2       9 UNK        -0.5108 
     45 CA        -46.3439  -22.7478   15.6858 C.3       8 UNK         0.0248 
     46 CB        -45.2760  -23.8063   15.3648 C.3       8 UNK        -0.2001 
     47 N         -47.1292  -22.4563   14.4874 N.am      8 UNK        -0.4140 
     48 C         -47.8852  -21.3606   14.3326 C.2       8 UNK         0.5028 
     49 O         -48.0193  -20.4904   15.1942 O.2       8 UNK        -0.5428 
     50 CA        -48.6207  -21.2057   12.9889 C.3       7 UNK         0.0264 
     51 CB        -47.6776  -20.6586   11.9052 C.3       7 UNK        -0.1988 
     52 N         -49.2396  -22.4477   12.5203 N.am      7 UNK        -0.4454 
     53 C         -50.2064  -23.1030   13.1798 C.2       7 UNK         0.5027 
     54 O         -50.6823  -22.7230   14.2484 O.2       7 UNK        -0.5083 
     55 CA        -50.6904  -24.4282   12.5613 C.3       6 UNK         0.0844 
     56 C56       -51.6247  -24.1365   11.3631 C.3       14 UNK        -0.0967 
     57 S57       -52.1747  -25.6270   10.4827 S.3       14 UNK        -0.2604 
     58 C58       -53.4095  -24.8789    9.3806 C.3       14 UNK         0.0134 
     59 N         -49.5482  -25.2913   12.2432 N.am      6 UNK        -0.4116 
     60 C         -48.6964  -25.7825   13.1570 C.2       5 UNK         0.5034 
     61 O         -48.8766  -25.6945   14.3733 O.2       5 UNK        -0.5045 
     62 CA        -47.3958  -26.4188   12.6400 C.3       5 UNK         0.0224 
     63 CB        -47.5347  -27.9404   12.4829 C.3       5 UNK        -0.1978 
     64 N         -46.9681  -25.8242   11.3714 N.am      5 UNK        -0.4737 
     65 C         -46.3806  -24.6238   11.2673 C.2       4 UNK         0.5027 
     66 O         -46.1086  -23.9194   12.2372 O.2       4 UNK        -0.5211 
     67 CA        -46.0799  -24.0999    9.8516 C.3       4 UNK         0.0297 
     68 CB        -44.6961  -24.5780    9.3857 C.3       4 UNK        -0.1993 
     69 N         -47.0915  -24.4928    8.8682 N.am      4 UNK        -0.4486 
     70 C         -48.3686  -24.0858    8.8914 C.2       3 UNK         0.4961 
     71 O         -48.8029  -23.2649    9.7002 O.2       3 UNK        -0.5105 
     72 CA        -49.3317  -24.7446    7.8820 C.3       3 UNK         0.0299 
     73 CB        -49.4123  -23.9085    6.5955 C.3       3 UNK        -0.1972 
     74 N         -48.9965  -26.1360    7.5415 N.am      3 UNK        -0.4305 
     75 C         -48.8553  -27.1338    8.4281 C.2       2 UNK         0.5006 
     76 O         -48.9947  -26.9844    9.6420 O.2       2 UNK        -0.5106 
     77 CA        -48.4066  -28.4973    7.8694 C.3       2 UNK         0.0296 
     78 CB        -48.3420  -29.5982    8.9511 C.3       2 UNK        -0.2002 
     79 N         -49.1907  -28.9470    6.7140 N.am      2 UNK        -0.4032 
     80 C         -50.4999  -29.2436    6.6853 C.2       1 UNK         0.5000 
     81 O         -51.2660  -29.1123    7.6428 O.2       1 UNK        -0.5238 
     82 H82       -52.6966  -34.0251    5.9369 H         1 UNK         0.0889 
     83 H83       -53.8124  -32.6625    5.9833 H         1 UNK         0.0889 
     84 H84       -52.9569  -33.1512    7.4495 H         1 UNK         0.0889 
     85 H85       -52.9751  -30.5707    5.6456 H         1 UNK         0.3028 
     86 H86       -50.1714  -30.3039    4.8692 H         1 UNK         0.0864 
     87 H87       -52.6637  -28.8255    4.3002 H         1 UNK         0.0720 
     88 H88       -51.2892  -29.1131    3.3120 H         1 UNK         0.0720 
     89 H89       -53.3168  -26.5164    3.7236 H         1 UNK         0.0814 
     90 H90       -52.5271  -25.1176    4.3979 H         1 UNK         0.0814 
     91 H91       -52.3465  -24.8131    6.8753 H         1 UNK         0.1469 
     92 H92       -55.1606  -26.9585    9.2876 H         1 UNK         0.1381 
     93 H93       -54.5990  -28.0467    5.1810 H         1 UNK         0.1206 
     94 H94       -56.5958  -28.5998    8.2884 H         1 UNK         0.0813 
     95 H95       -56.6529  -28.7925    6.5539 H         1 UNK         0.0813 
     96 H96       -57.0515  -30.7555    8.9154 H         1 UNK         0.0638 
     97 H97       -56.2856  -32.2406    8.4655 H         1 UNK         0.0638 
     98 H98       -56.1131  -31.6566   10.9044 H         1 UNK         0.0568 
     99 H99       -52.2598  -32.6020   10.7212 H         1 UNK         0.3450 
    100 H100      -52.8182  -30.9677   10.9674 H         1 UNK         0.3450 
    101 H101      -54.6979  -29.2899    9.9317 H         1 UNK         0.2987 
    102 H102      -53.8346  -27.7997   11.3235 H         1 UNK         0.0766 
    103 H103      -56.2845  -27.1758   11.4183 H         1 UNK         0.0798 
    104 H104      -55.2829  -26.0819   12.3589 H         1 UNK         0.0798 
    105 H105      -56.2427  -27.3218   13.1681 H         1 UNK         0.0798 
    106 H106      -54.0217  -27.5044   14.1763 H         1 UNK         0.3198 
    107 H107      -52.4073  -28.8726   15.6492 H         1 UNK         0.0843 
    108 H108      -49.6875  -28.5634   14.2996 H         1 UNK         0.0831 
    109 H109      -50.4215  -30.0813   14.7932 H         1 UNK         0.0831 
    110 H110      -49.9460  -28.9053   16.0095 H         1 UNK         0.0831 
    111 H111      -50.7400  -26.5311   15.1886 H         1 UNK         0.3133 
    112 H112      -52.4751  -24.1610   15.3115 H         1 UNK         0.0566 
    113 H113      -52.9897  -23.1726   17.5532 H         1 UNK         0.0814 
    114 H114      -54.2801  -24.1976   16.9514 H         1 UNK         0.0814 
    115 H115      -53.2102  -24.7954   18.2079 H         1 UNK         0.0814 
    116 H116      -50.3727  -23.9330   15.9739 H         1 UNK         0.3091 
    117 H117      -48.6787  -24.3155   18.7147 H         1 UNK         0.0702 
    118 H118      -48.3586  -26.7798   18.8137 H         1 UNK         0.0785 
    119 H119      -48.0223  -26.8294   17.0874 H         1 UNK         0.0785 
    120 H120      -46.9133  -26.0110   18.1870 H         1 UNK         0.0785 
    121 H121      -48.2740  -24.4986   15.7562 H         1 UNK         0.2998 
    122 H122      -45.8207  -21.8320   15.9700 H         1 UNK         0.0697 
    123 H123      -45.7228  -24.7493   15.0501 H         1 UNK         0.0825 
    124 H124      -44.6568  -24.0146   16.2384 H         1 UNK         0.0825 
    125 H125      -44.6103  -23.4697   14.5698 H         1 UNK         0.0825 
    126 H126      -46.9965  -23.0756   13.6913 H         1 UNK         0.3029 
    127 H127      -49.4219  -20.4784   13.1378 H         1 UNK         0.0897 
    128 H128      -48.2081  -20.4835   10.9690 H         1 UNK         0.0792 
    129 H129      -46.8555  -21.3443   11.6992 H         1 UNK         0.0792 
    130 H130      -47.2398  -19.7082   12.2134 H         1 UNK         0.0792 
    131 H131      -48.9300  -22.8069   11.6207 H         1 UNK         0.3086 
    132 H132      -51.2821  -24.9512   13.3130 H         1 UNK         0.0583 
    133 H133      -52.5115  -23.6030   11.7118 H         1 UNK         0.1020 
    134 H134      -51.1477  -23.4778   10.6369 H         1 UNK         0.1020 
    135 H135      -54.3171  -24.6663    9.9478 H         1 UNK         0.0694 
    136 H136      -53.0416  -23.9186    9.0155 H         1 UNK         0.0694 
    137 H137      -49.3724  -25.4784   11.2634 H         1 UNK         0.2989 
    138 H138      -46.6171  -26.2320   13.3821 H         1 UNK         0.1055 
    139 H139      -47.5890  -28.4227   13.4585 H         1 UNK         0.0806 
    140 H140      -46.6753  -28.3692   11.9675 H         1 UNK         0.0806 
    141 H141      -48.4329  -28.2157   11.9282 H         1 UNK         0.0806 
    142 H142      -47.2680  -26.3037   10.5303 H         1 UNK         0.3061 
    143 H143      -46.0657  -23.0089    9.9000 H         1 UNK         0.0734 
    144 H144      -44.4321  -24.1500    8.4185 H         1 UNK         0.0832 
    145 H145      -43.9225  -24.2756   10.0933 H         1 UNK         0.0832 
    146 H146      -44.6500  -25.6643    9.2985 H         1 UNK         0.0832 
    147 H147      -46.8146  -25.1608    8.1641 H         1 UNK         0.3156 
    148 H148      -50.3207  -24.7567    8.3412 H         1 UNK         0.0589 
    149 H149      -48.4519  -23.8664    6.0802 H         1 UNK         0.0808 
    150 H150      -50.1471  -24.3136    5.9000 H         1 UNK         0.0808 
    151 H151      -49.7090  -22.8821    6.8165 H         1 UNK         0.0808 
    152 H152      -48.8825  -26.3469    6.5604 H         1 UNK         0.3098 
    153 H153      -47.3898  -28.3493    7.5031 H         1 UNK         0.0720 
    154 H154      -48.0187  -30.5509    8.5317 H         1 UNK         0.0791 
    155 H155      -49.3102  -29.7530    9.4292 H         1 UNK         0.0791 
    156 H156      -47.6325  -29.3331    9.7353 H         1 UNK         0.0791 
    157 H157      -48.6634  -29.0736    5.8610 H         1 UNK         0.3028 
@<TRIPOS>BOND
     1    1    2 1    
     2    1   82 1    
     3    1   83 1    
     4    1   84 1    
     5    2    3 2    
     6    2    4 am   BACKBONE|DICT|INTERRES
     7    4    5 1    
     8    4   85 1    
     9    5    6 1    
    10    5   80 1    
    11    5   86 1    
    12    6    7 1    
    13    6   87 1    
    14    6   88 1    
    15    7    8 1    
    16    8    9 1    
    17    8   89 1    
    18    8   90 1    
    19    9   10 ar   
    20    9   14 ar   
    21   10   11 ar   
    22   10   91 1    
    23   11   12 ar   
    24   11   58 1    
    25   12   13 ar   
    26   12   92 1    
    27   13   14 ar   
    28   13   15 1    
    29   14   93 1    
    30   15   16 1    
    31   15   94 1    
    32   15   95 1    
    33   16   17 1    
    34   17   18 1    
    35   17   96 1    
    36   17   97 1    
    37   18   19 1    
    38   18   22 1    
    39   18   98 1    
    40   19   20 am   BACKBONE|DICT|INTERRES
    41   19   21 2    
    42   20   99 1    
    43   20  100 1    
    44   22   23 am   BACKBONE|DICT|INTERRES
    45   22  101 1    
    46   23   24 2    
    47   23   25 1    
    48   25   26 1    
    49   25   27 1    
    50   25  102 1    
    51   26  103 1    
    52   26  104 1    
    53   26  105 1    
    54   27   28 am   BACKBONE|DICT|INTERRES
    55   27  106 1    
    56   28   29 2    
    57   28   30 1    
    58   30   31 1    
    59   30   32 1    
    60   30  107 1    
    61   31  108 1    
    62   31  109 1    
    63   31  110 1    
    64   32   33 am   BACKBONE|DICT|INTERRES
    65   32  111 1    
    66   33   34 2    
    67   33   35 1    
    68   35   36 1    
    69   35   37 1    
    70   35  112 1    
    71   36  113 1    
    72   36  114 1    
    73   36  115 1    
    74   37   38 am   BACKBONE|DICT|INTERRES
    75   37  116 1    
    76   38   39 2    
    77   38   40 1    
    78   40   41 1    
    79   40   42 1    
    80   40  117 1    
    81   41  118 1    
    82   41  119 1    
    83   41  120 1    
    84   42   43 am   BACKBONE|DICT|INTERRES
    85   42  121 1    
    86   43   44 2    
    87   43   45 1    
    88   45   46 1    
    89   45   47 1    
    90   45  122 1    
    91   46  123 1    
    92   46  124 1    
    93   46  125 1    
    94   47   48 am   BACKBONE|DICT|INTERRES
    95   47  126 1    
    96   48   49 2    
    97   48   50 1    
    98   50   51 1    
    99   50   52 1    
   100   50  127 1    
   101   51  128 1    
   102   51  129 1    
   103   51  130 1    
   104   52   53 am   BACKBONE|DICT|INTERRES
   105   52  131 1    
   106   53   54 2    
   107   53   55 1    
   108   55   56 1    
   109   55   59 1    
   110   55  132 1    
   111   56   57 1    
   112   56  133 1    
   113   56  134 1    
   114   57   58 1    
   115   58  135 1    
   116   58  136 1    
   117   59   60 am   BACKBONE|DICT|INTERRES
   118   59  137 1    
   119   60   61 2    
   120   60   62 1    
   121   62   63 1    
   122   62   64 1    
   123   62  138 1    
   124   63  139 1    
   125   63  140 1    
   126   63  141 1    
   127   64   65 am   BACKBONE|DICT|INTERRES
   128   64  142 1    
   129   65   66 2    
   130   65   67 1    
   131   67   68 1    
   132   67   69 1    
   133   67  143 1    
   134   68  144 1    
   135   68  145 1    
   136   68  146 1    
   137   69   70 am   BACKBONE|DICT|INTERRES
   138   69  147 1    
   139   70   71 2    
   140   70   72 1    
   141   72   73 1    
   142   72   74 1    
   143   72  148 1    
   144   73  149 1    
   145   73  150 1    
   146   73  151 1    
   147   74   75 am   BACKBONE|DICT|INTERRES
   148   74  152 1    
   149   75   76 2    
   150   75   77 1    
   151   77   78 1    
   152   77   79 1    
   153   77  153 1    
   154   78  154 1    
   155   78  155 1    
   156   78  156 1    
   157   79   80 am   BACKBONE|DICT|INTERRES
   158   79  157 1    
   159   80   81 2    
@<TRIPOS>SUBSTRUCTURE
     1 UNK         1 GROUP             0       ****    0 ROOT    
