@<TRIPOS>MOLECULE
3R207
157   159    1
SMALL
USER_CHARGES


@<TRIPOS>ATOM
      1 CA        -54.0529  -26.0957    5.9867 C.3       0 UNK        -0.1975 
      2 C         -52.8697  -27.0151    6.2489 C.2       0 UNK         0.4852 
      3 O         -52.3364  -27.0189    7.3596 O.2       0 UNK        -0.5216 
      4 N         -52.4571  -27.7889    5.2364 N.am      1 UNK        -0.4461 
      5 CA        -51.2865  -28.6667    5.2954 C.3       1 UNK         0.0864 
      6 C6        -51.3350  -29.7479    4.1859 C.3       14 UNK        -0.0898 
      7 S7        -50.2543  -31.1775    4.5361 S.3       14 UNK        -0.2598 
      8 C8        -51.3843  -32.2948    5.4326 C.3       14 UNK         0.0286 
      9 C9        -51.8383  -31.6870    6.7518 C.ar      14 UNK        -0.0844 
     10 C10       -50.9244  -31.5193    7.7948 C.ar      14 UNK        -0.0881 
     11 C11       -51.3109  -30.8933    8.9816 C.ar      14 UNK        -0.0643 
     12 C12       -52.6328  -30.4633    9.1331 C.ar      14 UNK        -0.0930 
     13 C13       -53.5682  -30.6332    8.1026 C.ar      14 UNK        -0.0827 
     14 C14       -53.1555  -31.2470    6.9149 C.ar      14 UNK        -0.1249 
     15 C15       -55.0296  -30.1830    8.2048 C.3       14 UNK         0.0141 
     16 S16       -55.5896  -29.5655    9.8344 S.3       14 UNK        -0.2313 
     17 C17       -55.2675  -27.7690    9.7302 C.3       14 UNK        -0.0915 
     18 CA        -54.1289  -27.2851   10.6652 C.3       13 UNK         0.0968 
     19 C         -53.8684  -25.7658   10.4962 C.2       13 UNK         0.5732 
     20 N         -53.1518  -25.3673    9.4559 N.am      13 UNK        -0.7310 
     21 O         -54.3269  -24.9393   11.2833 O.2       13 UNK        -0.5035 
     22 N         -54.4006  -27.5819   12.0765 N.am      13 UNK        -0.4233 
     23 C         -53.7426  -28.4521   12.8479 C.2       13 UNK         0.4989 
     24 O         -52.8924  -29.2382   12.4296 O.2       13 UNK        -0.4996 
     25 CA        -54.0825  -28.4176   14.3514 C.3       12 UNK         0.0216 
     26 CB        -53.2804  -29.4526   15.1616 C.3       12 UNK        -0.1964 
     27 N         -53.8535  -27.0849   14.9201 N.am      12 UNK        -0.4276 
     28 C         -54.6974  -26.0491   14.8072 C.2       12 UNK         0.5020 
     29 O         -55.7837  -26.1378   14.2305 O.2       12 UNK        -0.5489 
     30 CA        -54.2588  -24.6867   15.3832 C.3       11 UNK         0.0294 
     31 CB        -55.4552  -23.8230   15.8383 C.3       11 UNK        -0.2019 
     32 N         -53.2378  -24.7675   16.4359 N.am      11 UNK        -0.4493 
     33 C         -53.3681  -25.3434   17.6409 C.2       11 UNK         0.4932 
     34 O         -54.3959  -25.9067   18.0218 O.2       11 UNK        -0.5029 
     35 CA        -52.1433  -25.2727   18.5772 C.3       10 UNK         0.0280 
     36 CB        -52.2829  -26.1938   19.8080 C.3       10 UNK        -0.1976 
     37 N         -50.8596  -25.5222   17.9097 N.am      10 UNK        -0.4242 
     38 C         -50.5044  -26.5911   17.1824 C.2       10 UNK         0.5072 
     39 O         -51.2767  -27.5052   16.8923 O.2       10 UNK        -0.5224 
     40 CA        -49.0353  -26.6380   16.7070 C.3       9 UNK         0.0343 
     41 CB        -48.7067  -27.9301   15.9355 C.3       9 UNK        -0.2003 
     42 N         -48.6860  -25.4908   15.8682 N.am      9 UNK        -0.4272 
     43 C         -48.5139  -24.2285   16.2840 C.2       9 UNK         0.4988 
     44 O         -48.5327  -23.8920   17.4691 O.2       9 UNK        -0.5108 
     45 CA        -48.3681  -23.1519   15.1949 C.3       8 UNK         0.0248 
     46 CB        -46.8975  -22.9752   14.7847 C.3       8 UNK        -0.2001 
     47 N         -49.1876  -23.4344   14.0122 N.am      8 UNK        -0.4140 
     48 C         -50.5290  -23.4844   14.0097 C.2       8 UNK         0.5028 
     49 O         -51.2264  -23.2477   14.9974 O.2       8 UNK        -0.5428 
     50 CA        -51.2047  -23.9029   12.6948 C.3       7 UNK         0.0264 
     51 CB        -51.4515  -22.6795   11.7991 C.3       7 UNK        -0.1988 
     52 N         -50.4312  -24.9256   11.9808 N.am      7 UNK        -0.4454 
     53 C         -50.3957  -26.2084   12.3772 C.2       7 UNK         0.5027 
     54 O         -51.0400  -26.6248   13.3391 O.2       7 UNK        -0.5083 
     55 CA        -49.4692  -27.1898   11.6281 C.3       6 UNK         0.0844 
     56 C56       -50.1867  -27.8689   10.4370 C.3       14 UNK        -0.0967 
     57 S57       -49.2159  -29.2544    9.7506 S.3       14 UNK        -0.2604 
     58 C58       -50.2902  -30.6867   10.0915 C.3       14 UNK         0.0134 
     59 N         -48.1839  -26.6002   11.2443 N.am      6 UNK        -0.4116 
     60 C         -47.2454  -26.1927   12.1092 C.2       5 UNK         0.5034 
     61 O         -47.4135  -26.1477   13.3268 O.2       5 UNK        -0.5045 
     62 CA        -45.8931  -25.7659   11.5228 C.3       5 UNK         0.0224 
     63 CB        -45.0848  -26.9970   11.0802 C.3       5 UNK        -0.1978 
     64 N         -46.0843  -24.8747   10.3810 N.am      5 UNK        -0.4737 
     65 C         -45.9535  -23.5425   10.4222 C.2       4 UNK         0.5027 
     66 O         -45.5423  -22.9235   11.4034 O.2       4 UNK        -0.5211 
     67 CA        -46.3708  -22.7571    9.1622 C.3       4 UNK         0.0297 
     68 CB        -45.1512  -22.5009    8.2628 C.3       4 UNK        -0.1993 
     69 N         -47.4262  -23.4045    8.3742 N.am      4 UNK        -0.4486 
     70 C         -48.6450  -23.7153    8.8371 C.2       3 UNK         0.4961 
     71 O         -49.0275  -23.4654    9.9777 O.2       3 UNK        -0.5105 
     72 CA        -49.5790  -24.4999    7.9039 C.3       3 UNK         0.0299 
     73 CB        -50.4368  -23.5419    7.0643 C.3       3 UNK        -0.1972 
     74 N         -48.9240  -25.4715    7.0214 N.am      3 UNK        -0.4305 
     75 C         -48.0550  -26.4280    7.3803 C.2       2 UNK         0.5006 
     76 O         -47.5404  -26.5065    8.4970 O.2       2 UNK        -0.5106 
     77 CA        -47.7643  -27.5059    6.3204 C.3       2 UNK         0.0296 
     78 CB        -46.6548  -28.4812    6.7560 C.3       2 UNK        -0.2002 
     79 N         -48.9863  -28.2637    6.0445 N.am      2 UNK        -0.4032 
     80 C         -49.9892  -27.8373    5.2656 C.2       1 UNK         0.5000 
     81 O         -49.9271  -26.8137    4.5765 O.2       1 UNK        -0.5238 
     82 H82       -53.8136  -25.0794    6.2986 H         1 UNK         0.0889 
     83 H83       -54.9228  -26.4291    6.5506 H         1 UNK         0.0889 
     84 H84       -54.3215  -26.0699    4.9308 H         1 UNK         0.0889 
     85 H85       -52.9087  -27.7161    4.3363 H         1 UNK         0.3028 
     86 H86       -51.3265  -29.1564    6.2680 H         1 UNK         0.0864 
     87 H87       -51.0615  -29.3261    3.2168 H         1 UNK         0.0720 
     88 H88       -52.3539  -30.1207    4.0688 H         1 UNK         0.0720 
     89 H89       -50.8715  -33.2376    5.6279 H         1 UNK         0.0814 
     90 H90       -52.2377  -32.5364    4.7970 H         1 UNK         0.0814 
     91 H91       -49.9013  -31.8476    7.6699 H         1 UNK         0.1469 
     92 H92       -52.9223  -29.9995   10.0611 H         1 UNK         0.1381 
     93 H93       -53.8627  -31.3704    6.1058 H         1 UNK         0.1206 
     94 H94       -55.6604  -31.0373    7.9550 H         1 UNK         0.0813 
     95 H95       -55.2282  -29.4322    7.4390 H         1 UNK         0.0813 
     96 H96       -56.1979  -27.2512    9.9700 H         1 UNK         0.0638 
     97 H97       -55.0368  -27.5099    8.6968 H         1 UNK         0.0638 
     98 H98       -53.2155  -27.7854   10.3558 H         1 UNK         0.0568 
     99 H99       -52.9966  -24.3820    9.3278 H         1 UNK         0.3450 
    100 H100      -52.8079  -26.0297    8.7615 H         1 UNK         0.3450 
    101 H101      -55.0374  -26.9371   12.5356 H         1 UNK         0.2987 
    102 H102      -55.1404  -28.6694   14.4515 H         1 UNK         0.0766 
    103 H103      -53.5369  -29.4150   16.2205 H         1 UNK         0.0798 
    104 H104      -52.2060  -29.2849   15.0722 H         1 UNK         0.0798 
    105 H105      -53.4831  -30.4656   14.8121 H         1 UNK         0.0798 
    106 H106      -52.9595  -26.9419   15.3765 H         1 UNK         0.3198 
    107 H107      -53.7899  -24.1587   14.5538 H         1 UNK         0.0843 
    108 H108      -55.1252  -22.8579   16.2223 H         1 UNK         0.0831 
    109 H109      -56.0383  -24.3148   16.6173 H         1 UNK         0.0831 
    110 H110      -56.1318  -23.6232   15.0065 H         1 UNK         0.0831 
    111 H111      -52.3536  -24.3226   16.1976 H         1 UNK         0.3133 
    112 H112      -52.1011  -24.2445   18.9390 H         1 UNK         0.0566 
    113 H113      -51.4272  -26.0972   20.4761 H         1 UNK         0.0814 
    114 H114      -53.1728  -25.9445   20.3874 H         1 UNK         0.0814 
    115 H115      -52.3656  -27.2421   19.5180 H         1 UNK         0.0814 
    116 H116      -50.1477  -24.8060   18.0314 H         1 UNK         0.3091 
    117 H117      -48.4070  -26.6150   17.5997 H         1 UNK         0.0702 
    118 H118      -47.6554  -27.9650   15.6489 H         1 UNK         0.0785 
    119 H119      -49.3033  -28.0173   15.0266 H         1 UNK         0.0785 
    120 H120      -48.9073  -28.8124   16.5445 H         1 UNK         0.0785 
    121 H121      -48.5884  -25.6801   14.8756 H         1 UNK         0.2998 
    122 H122      -48.7174  -22.2079   15.6182 H         1 UNK         0.0697 
    123 H123      -46.7816  -22.1768   14.0513 H         1 UNK         0.0825 
    124 H124      -46.2827  -22.7140   15.6470 H         1 UNK         0.0825 
    125 H125      -46.4805  -23.8854   14.3539 H         1 UNK         0.0825 
    126 H126      -48.6979  -23.6591   13.1583 H         1 UNK         0.3029 
    127 H127      -52.1784  -24.3305   12.9379 H         1 UNK         0.0897 
    128 H128      -51.8823  -22.9674   10.8406 H         1 UNK         0.0792 
    129 H129      -52.1503  -21.9903   12.2747 H         1 UNK         0.0792 
    130 H130      -50.5340  -22.1237   11.6041 H         1 UNK         0.0792 
    131 H131      -49.8633  -24.6043   11.1993 H         1 UNK         0.3086 
    132 H132      -49.2376  -27.9799   12.3465 H         1 UNK         0.0583 
    133 H133      -51.1475  -28.2596   10.7619 H         1 UNK         0.1020 
    134 H134      -50.3987  -27.1553    9.6398 H         1 UNK         0.1020 
    135 H135      -49.6656  -31.5772   10.1750 H         1 UNK         0.0694 
    136 H136      -50.7796  -30.5711   11.0601 H         1 UNK         0.0694 
    137 H137      -47.9599  -26.6224   10.2515 H         1 UNK         0.2989 
    138 H138      -45.3333  -25.2597   12.3126 H         1 UNK         0.1055 
    139 H139      -44.9353  -27.6856   11.9130 H         1 UNK         0.0806 
    140 H140      -44.0983  -26.7100   10.7160 H         1 UNK         0.0806 
    141 H141      -45.5858  -27.5503   10.2843 H         1 UNK         0.0806 
    142 H142      -46.4722  -25.2982    9.5422 H         1 UNK         0.3061 
    143 H143      -46.7593  -21.7929    9.4969 H         1 UNK         0.0734 
    144 H144      -45.4071  -21.8643    7.4156 H         1 UNK         0.0832 
    145 H145      -44.3583  -21.9958    8.8165 H         1 UNK         0.0832 
    146 H146      -44.7343  -23.4307    7.8736 H         1 UNK         0.0832 
    147 H147      -47.1950  -23.6714    7.4283 H         1 UNK         0.3156 
    148 H148      -50.2552  -25.0703    8.5423 H         1 UNK         0.0589 
    149 H149      -49.8328  -22.9767    6.3534 H         1 UNK         0.0808 
    150 H150      -51.1995  -24.0826    6.5034 H         1 UNK         0.0808 
    151 H151      -50.9547  -22.8217    7.6995 H         1 UNK         0.0808 
    152 H152      -49.3001  -25.5404    6.0812 H         1 UNK         0.3098 
    153 H153      -47.4324  -27.0022    5.4101 H         1 UNK         0.0720 
    154 H154      -46.9244  -29.0251    7.6622 H         1 UNK         0.0791 
    155 H155      -45.7259  -27.9477    6.9617 H         1 UNK         0.0791 
    156 H156      -46.4427  -29.2134    5.9768 H         1 UNK         0.0791 
    157 H157      -49.1279  -29.0959    6.6000 H         1 UNK         0.3028 
@<TRIPOS>BOND
     1    1    2 1    
     2    1   82 1    
     3    1   83 1    
     4    1   84 1    
     5    2    3 2    
     6    2    4 am   BACKBONE|DICT|INTERRES
     7    4    5 1    
     8    4   85 1    
     9    5    6 1    
    10    5   80 1    
    11    5   86 1    
    12    6    7 1    
    13    6   87 1    
    14    6   88 1    
    15    7    8 1    
    16    8    9 1    
    17    8   89 1    
    18    8   90 1    
    19    9   10 ar   
    20    9   14 ar   
    21   10   11 ar   
    22   10   91 1    
    23   11   12 ar   
    24   11   58 1    
    25   12   13 ar   
    26   12   92 1    
    27   13   14 ar   
    28   13   15 1    
    29   14   93 1    
    30   15   16 1    
    31   15   94 1    
    32   15   95 1    
    33   16   17 1    
    34   17   18 1    
    35   17   96 1    
    36   17   97 1    
    37   18   19 1    
    38   18   22 1    
    39   18   98 1    
    40   19   20 am   BACKBONE|DICT|INTERRES
    41   19   21 2    
    42   20   99 1    
    43   20  100 1    
    44   22   23 am   BACKBONE|DICT|INTERRES
    45   22  101 1    
    46   23   24 2    
    47   23   25 1    
    48   25   26 1    
    49   25   27 1    
    50   25  102 1    
    51   26  103 1    
    52   26  104 1    
    53   26  105 1    
    54   27   28 am   BACKBONE|DICT|INTERRES
    55   27  106 1    
    56   28   29 2    
    57   28   30 1    
    58   30   31 1    
    59   30   32 1    
    60   30  107 1    
    61   31  108 1    
    62   31  109 1    
    63   31  110 1    
    64   32   33 am   BACKBONE|DICT|INTERRES
    65   32  111 1    
    66   33   34 2    
    67   33   35 1    
    68   35   36 1    
    69   35   37 1    
    70   35  112 1    
    71   36  113 1    
    72   36  114 1    
    73   36  115 1    
    74   37   38 am   BACKBONE|DICT|INTERRES
    75   37  116 1    
    76   38   39 2    
    77   38   40 1    
    78   40   41 1    
    79   40   42 1    
    80   40  117 1    
    81   41  118 1    
    82   41  119 1    
    83   41  120 1    
    84   42   43 am   BACKBONE|DICT|INTERRES
    85   42  121 1    
    86   43   44 2    
    87   43   45 1    
    88   45   46 1    
    89   45   47 1    
    90   45  122 1    
    91   46  123 1    
    92   46  124 1    
    93   46  125 1    
    94   47   48 am   BACKBONE|DICT|INTERRES
    95   47  126 1    
    96   48   49 2    
    97   48   50 1    
    98   50   51 1    
    99   50   52 1    
   100   50  127 1    
   101   51  128 1    
   102   51  129 1    
   103   51  130 1    
   104   52   53 am   BACKBONE|DICT|INTERRES
   105   52  131 1    
   106   53   54 2    
   107   53   55 1    
   108   55   56 1    
   109   55   59 1    
   110   55  132 1    
   111   56   57 1    
   112   56  133 1    
   113   56  134 1    
   114   57   58 1    
   115   58  135 1    
   116   58  136 1    
   117   59   60 am   BACKBONE|DICT|INTERRES
   118   59  137 1    
   119   60   61 2    
   120   60   62 1    
   121   62   63 1    
   122   62   64 1    
   123   62  138 1    
   124   63  139 1    
   125   63  140 1    
   126   63  141 1    
   127   64   65 am   BACKBONE|DICT|INTERRES
   128   64  142 1    
   129   65   66 2    
   130   65   67 1    
   131   67   68 1    
   132   67   69 1    
   133   67  143 1    
   134   68  144 1    
   135   68  145 1    
   136   68  146 1    
   137   69   70 am   BACKBONE|DICT|INTERRES
   138   69  147 1    
   139   70   71 2    
   140   70   72 1    
   141   72   73 1    
   142   72   74 1    
   143   72  148 1    
   144   73  149 1    
   145   73  150 1    
   146   73  151 1    
   147   74   75 am   BACKBONE|DICT|INTERRES
   148   74  152 1    
   149   75   76 2    
   150   75   77 1    
   151   77   78 1    
   152   77   79 1    
   153   77  153 1    
   154   78  154 1    
   155   78  155 1    
   156   78  156 1    
   157   79   80 am   BACKBONE|DICT|INTERRES
   158   79  157 1    
   159   80   81 2    
@<TRIPOS>SUBSTRUCTURE
     1 UNK         1 GROUP             0       ****    0 ROOT    
