@<TRIPOS>MOLECULE
3R207
157   159    1
SMALL
USER_CHARGES


@<TRIPOS>ATOM
      1 CA        -47.2147  -27.4737   10.7030 C.3       0 UNK        -0.1975 
      2 C         -47.4100  -27.6272    9.2028 C.2       0 UNK         0.4852 
      3 O         -46.8475  -26.8486    8.4332 O.2       0 UNK        -0.5216 
      4 N         -48.1632  -28.6499    8.7730 N.am      1 UNK        -0.4461 
      5 CA        -48.5711  -28.9289    7.3807 C.3       1 UNK         0.0864 
      6 C6        -49.6215  -27.9215    6.8319 C.3       14 UNK        -0.0898 
      7 S7        -51.0144  -27.6185    7.9726 S.3       14 UNK        -0.2598 
      8 C8        -52.2035  -26.7831    6.8754 C.3       14 UNK         0.0286 
      9 C9        -53.3385  -26.1294    7.6570 C.ar      14 UNK        -0.0844 
     10 C10       -53.5594  -24.7504    7.5630 C.ar      14 UNK        -0.0881 
     11 C11       -54.6010  -24.1412    8.2749 C.ar      14 UNK        -0.0643 
     12 C12       -55.4274  -24.9312    9.0801 C.ar      14 UNK        -0.0930 
     13 C13       -55.2335  -26.3131    9.1671 C.ar      14 UNK        -0.0827 
     14 C14       -54.1887  -26.9057    8.4519 C.ar      14 UNK        -0.1249 
     15 C15       -56.1792  -27.1613   10.0069 C.3       14 UNK         0.0141 
     16 S16       -55.5826  -27.3542   11.7151 S.3       14 UNK        -0.2313 
     17 C17       -54.4818  -28.8039   11.5735 C.3       14 UNK        -0.0915 
     18 CA        -54.9071  -29.9786   12.4934 C.3       13 UNK         0.0968 
     19 C         -54.0476  -31.2522   12.2370 C.2       13 UNK         0.5732 
     20 N         -53.4430  -31.8780   13.2415 N.am      13 UNK        -0.7310 
     21 O         -53.9397  -31.6979   11.0971 O.2       13 UNK        -0.5035 
     22 N         -54.9504  -29.5780   13.9089 N.am      13 UNK        -0.4233 
     23 C         -55.8256  -30.0612   14.7999 C.2       13 UNK         0.4989 
     24 O         -56.7354  -30.8397   14.5064 O.2       13 UNK        -0.4996 
     25 CA        -55.6599  -29.6016   16.2632 C.3       12 UNK         0.0216 
     26 CB        -56.3878  -30.5235   17.2651 C.3       12 UNK        -0.1964 
     27 N         -54.2637  -29.4066   16.6738 N.am      12 UNK        -0.4276 
     28 C         -53.2674  -30.3080   16.6450 C.2       12 UNK         0.5020 
     29 O         -53.4049  -31.4561   16.2192 O.2       12 UNK        -0.5489 
     30 CA        -51.8806  -29.8521   17.1428 C.3       11 UNK         0.0294 
     31 CB        -50.7520  -30.4125   16.2572 C.3       11 UNK        -0.2019 
     32 N         -51.7788  -28.3926   17.1604 N.am      11 UNK        -0.4493 
     33 C         -51.8162  -27.6134   18.2502 C.2       11 UNK         0.4932 
     34 O         -51.8426  -28.0475   19.4016 O.2       11 UNK        -0.5029 
     35 CA        -51.8652  -26.0884   18.0220 C.3       10 UNK         0.0280 
     36 CB        -50.4708  -25.4736   18.2183 C.3       10 UNK        -0.1976 
     37 N         -52.3831  -25.7130   16.7006 N.am      10 UNK        -0.4242 
     38 C         -53.6427  -25.9374   16.2884 C.2       10 UNK         0.5072 
     39 O         -54.5193  -26.4022   17.0171 O.2       10 UNK        -0.5224 
     40 CA        -53.9679  -25.6936   14.8019 C.3       9 UNK         0.0343 
     41 CB        -54.6127  -24.3140   14.6075 C.3       9 UNK        -0.2003 
     42 N         -52.8028  -25.8261   13.9215 N.am      9 UNK        -0.4272 
     43 C         -52.0760  -26.9482   13.7910 C.2       9 UNK         0.4988 
     44 O         -52.4057  -28.0172   14.3063 O.2       9 UNK        -0.5108 
     45 CA        -50.7451  -26.8832   13.0143 C.3       8 UNK         0.0248 
     46 CB        -50.8963  -27.5765   11.6526 C.3       8 UNK        -0.2001 
     47 N         -50.2203  -25.5308   12.8046 N.am      8 UNK        -0.4140 
     48 C         -49.9327  -24.6332   13.7627 C.2       8 UNK         0.5028 
     49 O         -49.9973  -24.8789   14.9677 O.2       8 UNK        -0.5428 
     50 CA        -49.6043  -23.1964   13.3032 C.3       7 UNK         0.0264 
     51 CB        -48.0835  -23.0108   13.1912 C.3       7 UNK        -0.1988 
     52 N         -50.2253  -22.8413   12.0213 N.am      7 UNK        -0.4454 
     53 C         -51.5380  -22.9194   11.7494 C.2       7 UNK         0.5027 
     54 O         -52.3931  -23.0907   12.6180 O.2       7 UNK        -0.5083 
     55 CA        -51.9764  -22.9020   10.2689 C.3       6 UNK         0.0844 
     56 C56       -52.9165  -21.7073    9.9724 C.3       14 UNK        -0.0967 
     57 S57       -53.3997  -21.5896    8.2132 S.3       14 UNK        -0.2604 
     58 C58       -54.8859  -22.6455    8.1439 C.3       14 UNK         0.0134 
     59 N         -50.8877  -23.0118    9.2896 N.am      6 UNK        -0.4116 
     60 C         -50.0283  -24.0300    9.1573 C.2       5 UNK         0.5034 
     61 O         -49.9174  -24.9448    9.9749 O.2       5 UNK        -0.5045 
     62 CA        -49.1412  -24.0387    7.9030 C.3       5 UNK         0.0224 
     63 CB        -49.3842  -22.8680    6.9215 C.3       5 UNK        -0.1978 
     64 N         -47.7236  -24.1547    8.2476 N.am      5 UNK        -0.4737 
     65 C         -46.9738  -23.2722    8.9200 C.2       4 UNK         0.5027 
     66 O         -47.4063  -22.2150    9.3814 O.2       4 UNK        -0.5211 
     67 CA        -45.4839  -23.6176    9.1145 C.3       4 UNK         0.0297 
     68 CB        -45.2131  -24.0431   10.5663 C.3       4 UNK        -0.1993 
     69 N         -44.9645  -24.6484    8.2040 N.am      4 UNK        -0.4486 
     70 C         -44.7897  -24.4913    6.8840 C.2       3 UNK         0.4961 
     71 O         -45.0980  -23.4693    6.2704 O.2       3 UNK        -0.5105 
     72 CA        -44.1121  -25.6399    6.1228 C.3       3 UNK         0.0299 
     73 CB        -42.5907  -25.6036    6.3897 C.3       3 UNK        -0.1972 
     74 N         -44.6742  -26.9661    6.4242 N.am      3 UNK        -0.4305 
     75 C         -44.3929  -28.0658    5.7014 C.2       2 UNK         0.5006 
     76 O         -43.6974  -28.0468    4.6842 O.2       2 UNK        -0.5106 
     77 CA        -44.9312  -29.4314    6.1732 C.3       2 UNK         0.0296 
     78 CB        -43.8758  -30.1483    7.0318 C.3       2 UNK        -0.2002 
     79 N         -46.1825  -29.3577    6.9219 N.am      2 UNK        -0.4032 
     80 C         -47.3858  -29.0955    6.3930 C.2       1 UNK         0.5000 
     81 O         -47.5762  -28.9801    5.1802 O.2       1 UNK        -0.5238 
     82 H82       -47.6818  -26.5499   11.0441 H         1 UNK         0.0889 
     83 H83       -46.1525  -27.4299   10.9409 H         1 UNK         0.0889 
     84 H84       -47.6499  -28.3034   11.2590 H         1 UNK         0.0889 
     85 H85       -48.5746  -29.2677    9.4585 H         1 UNK         0.3028 
     86 H86       -49.0530  -29.9072    7.4127 H         1 UNK         0.0864 
     87 H87       -50.0357  -28.2890    5.8911 H         1 UNK         0.0720 
     88 H88       -49.1420  -26.9720    6.5989 H         1 UNK         0.0720 
     89 H89       -51.6732  -26.0401    6.2778 H         1 UNK         0.0814 
     90 H90       -52.6181  -27.5086    6.1743 H         1 UNK         0.0814 
     91 H91       -52.9233  -24.1468    6.9307 H         1 UNK         0.1469 
     92 H92       -56.2409  -24.4734    9.6264 H         1 UNK         0.1381 
     93 H93       -54.0326  -27.9738    8.5113 H         1 UNK         0.1206 
     94 H94       -56.3330  -28.1381    9.5459 H         1 UNK         0.0813 
     95 H95       -57.1632  -26.6910   10.0379 H         1 UNK         0.0813 
     96 H96       -54.4502  -29.1291   10.5332 H         1 UNK         0.0638 
     97 H97       -53.4724  -28.4857   11.8144 H         1 UNK         0.0638 
     98 H98       -55.9167  -30.2568   12.1860 H         1 UNK         0.0568 
     99 H99       -53.5397  -31.5628   14.2005 H         1 UNK         0.3450 
    100 H100      -52.9009  -32.7032   13.0434 H         1 UNK         0.3450 
    101 H101      -54.1896  -28.9831   14.2193 H         1 UNK         0.2987 
    102 H102      -56.1311  -28.6193   16.3196 H         1 UNK         0.0766 
    103 H103      -56.2814  -30.1606   18.2873 H         1 UNK         0.0798 
    104 H104      -57.4562  -30.5720   17.0511 H         1 UNK         0.0798 
    105 H105      -56.0015  -31.5428   17.2289 H         1 UNK         0.0798 
    106 H106      -54.0504  -28.4749   17.0122 H         1 UNK         0.3198 
    107 H107      -51.7555  -30.2538   18.1503 H         1 UNK         0.0843 
    108 H108      -50.7424  -31.5030   16.2761 H         1 UNK         0.0831 
    109 H109      -49.7738  -30.0765   16.6012 H         1 UNK         0.0831 
    110 H110      -50.8659  -30.1061   15.2165 H         1 UNK         0.0831 
    111 H111      -51.7993  -27.9558   16.2448 H         1 UNK         0.3133 
    112 H112      -52.5334  -25.6643   18.7744 H         1 UNK         0.0566 
    113 H113      -49.7495  -25.8748   17.5051 H         1 UNK         0.0814 
    114 H114      -50.0895  -25.6820   19.2189 H         1 UNK         0.0814 
    115 H115      -50.4925  -24.3903   18.0987 H         1 UNK         0.0814 
    116 H116      -51.7043  -25.3475   16.0382 H         1 UNK         0.3091 
    117 H117      -54.6935  -26.4518   14.5014 H         1 UNK         0.0702 
    118 H118      -54.9115  -24.1608   13.5701 H         1 UNK         0.0785 
    119 H119      -53.9313  -23.5081   14.8833 H         1 UNK         0.0785 
    120 H120      -55.5083  -24.2110   15.2216 H         1 UNK         0.0785 
    121 H121      -52.4945  -24.9788   13.4565 H         1 UNK         0.2998 
    122 H122      -50.0028  -27.4295   13.5992 H         1 UNK         0.0697 
    123 H123      -51.6715  -27.1051   11.0458 H         1 UNK         0.0825 
    124 H124      -51.1577  -28.6283   11.7734 H         1 UNK         0.0825 
    125 H125      -49.9745  -27.5418   11.0770 H         1 UNK         0.0825 
    126 H126      -50.1281  -25.2414   11.8326 H         1 UNK         0.3029 
    127 H127      -49.9886  -22.5111   14.0614 H         1 UNK         0.0897 
    128 H128      -47.8247  -21.9856   12.9256 H         1 UNK         0.0792 
    129 H129      -47.5918  -23.2343   14.1391 H         1 UNK         0.0792 
    130 H130      -47.6553  -23.6719   12.4368 H         1 UNK         0.0792 
    131 H131      -49.5964  -22.7075   11.2412 H         1 UNK         0.3086 
    132 H132      -52.5657  -23.8127   10.1488 H         1 UNK         0.0583 
    133 H133      -53.8171  -21.7669   10.5872 H         1 UNK         0.1020 
    134 H134      -52.4302  -20.7682   10.2433 H         1 UNK         0.1020 
    135 H135      -55.5868  -22.3137    8.9116 H         1 UNK         0.0694 
    136 H136      -55.3809  -22.4777    7.1866 H         1 UNK         0.0694 
    137 H137      -50.8846  -22.2971    8.5766 H         1 UNK         0.2989 
    138 H138      -49.4040  -24.9534    7.3778 H         1 UNK         0.1055 
    139 H139      -48.7510  -22.9658    6.0394 H         1 UNK         0.0806 
    140 H140      -49.1698  -21.8971    7.3695 H         1 UNK         0.0806 
    141 H141      -50.4163  -22.8533    6.5680 H         1 UNK         0.0806 
    142 H142      -47.2960  -25.0556    8.0453 H         1 UNK         0.3061 
    143 H143      -44.9213  -22.7011    8.9243 H         1 UNK         0.0734 
    144 H144      -45.5118  -23.2583   11.2624 H         1 UNK         0.0832 
    145 H145      -45.7659  -24.9432   10.8325 H         1 UNK         0.0832 
    146 H146      -44.1533  -24.2340   10.7356 H         1 UNK         0.0832 
    147 H147      -44.7102  -25.5297    8.6251 H         1 UNK         0.3156 
    148 H148      -44.2754  -25.4460    5.0602 H         1 UNK         0.0589 
    149 H149      -42.3537  -25.9024    7.4114 H         1 UNK         0.0808 
    150 H150      -42.0427  -26.2609    5.7153 H         1 UNK         0.0808 
    151 H151      -42.1898  -24.5995    6.2425 H         1 UNK         0.0808 
    152 H152      -45.3466  -27.0229    7.1856 H         1 UNK         0.3098 
    153 H153      -45.1075  -30.0374    5.2818 H         1 UNK         0.0720 
    154 H154      -44.2004  -31.1529    7.3040 H         1 UNK         0.0791 
    155 H155      -42.9349  -30.2504    6.4889 H         1 UNK         0.0791 
    156 H156      -43.6630  -29.6017    7.9515 H         1 UNK         0.0791 
    157 H157      -46.1191  -29.4297    7.9267 H         1 UNK         0.3028 
@<TRIPOS>BOND
     1    1    2 1    
     2    1   82 1    
     3    1   83 1    
     4    1   84 1    
     5    2    3 2    
     6    2    4 am   BACKBONE|DICT|INTERRES
     7    4    5 1    
     8    4   85 1    
     9    5    6 1    
    10    5   80 1    
    11    5   86 1    
    12    6    7 1    
    13    6   87 1    
    14    6   88 1    
    15    7    8 1    
    16    8    9 1    
    17    8   89 1    
    18    8   90 1    
    19    9   10 ar   
    20    9   14 ar   
    21   10   11 ar   
    22   10   91 1    
    23   11   12 ar   
    24   11   58 1    
    25   12   13 ar   
    26   12   92 1    
    27   13   14 ar   
    28   13   15 1    
    29   14   93 1    
    30   15   16 1    
    31   15   94 1    
    32   15   95 1    
    33   16   17 1    
    34   17   18 1    
    35   17   96 1    
    36   17   97 1    
    37   18   19 1    
    38   18   22 1    
    39   18   98 1    
    40   19   20 am   BACKBONE|DICT|INTERRES
    41   19   21 2    
    42   20   99 1    
    43   20  100 1    
    44   22   23 am   BACKBONE|DICT|INTERRES
    45   22  101 1    
    46   23   24 2    
    47   23   25 1    
    48   25   26 1    
    49   25   27 1    
    50   25  102 1    
    51   26  103 1    
    52   26  104 1    
    53   26  105 1    
    54   27   28 am   BACKBONE|DICT|INTERRES
    55   27  106 1    
    56   28   29 2    
    57   28   30 1    
    58   30   31 1    
    59   30   32 1    
    60   30  107 1    
    61   31  108 1    
    62   31  109 1    
    63   31  110 1    
    64   32   33 am   BACKBONE|DICT|INTERRES
    65   32  111 1    
    66   33   34 2    
    67   33   35 1    
    68   35   36 1    
    69   35   37 1    
    70   35  112 1    
    71   36  113 1    
    72   36  114 1    
    73   36  115 1    
    74   37   38 am   BACKBONE|DICT|INTERRES
    75   37  116 1    
    76   38   39 2    
    77   38   40 1    
    78   40   41 1    
    79   40   42 1    
    80   40  117 1    
    81   41  118 1    
    82   41  119 1    
    83   41  120 1    
    84   42   43 am   BACKBONE|DICT|INTERRES
    85   42  121 1    
    86   43   44 2    
    87   43   45 1    
    88   45   46 1    
    89   45   47 1    
    90   45  122 1    
    91   46  123 1    
    92   46  124 1    
    93   46  125 1    
    94   47   48 am   BACKBONE|DICT|INTERRES
    95   47  126 1    
    96   48   49 2    
    97   48   50 1    
    98   50   51 1    
    99   50   52 1    
   100   50  127 1    
   101   51  128 1    
   102   51  129 1    
   103   51  130 1    
   104   52   53 am   BACKBONE|DICT|INTERRES
   105   52  131 1    
   106   53   54 2    
   107   53   55 1    
   108   55   56 1    
   109   55   59 1    
   110   55  132 1    
   111   56   57 1    
   112   56  133 1    
   113   56  134 1    
   114   57   58 1    
   115   58  135 1    
   116   58  136 1    
   117   59   60 am   BACKBONE|DICT|INTERRES
   118   59  137 1    
   119   60   61 2    
   120   60   62 1    
   121   62   63 1    
   122   62   64 1    
   123   62  138 1    
   124   63  139 1    
   125   63  140 1    
   126   63  141 1    
   127   64   65 am   BACKBONE|DICT|INTERRES
   128   64  142 1    
   129   65   66 2    
   130   65   67 1    
   131   67   68 1    
   132   67   69 1    
   133   67  143 1    
   134   68  144 1    
   135   68  145 1    
   136   68  146 1    
   137   69   70 am   BACKBONE|DICT|INTERRES
   138   69  147 1    
   139   70   71 2    
   140   70   72 1    
   141   72   73 1    
   142   72   74 1    
   143   72  148 1    
   144   73  149 1    
   145   73  150 1    
   146   73  151 1    
   147   74   75 am   BACKBONE|DICT|INTERRES
   148   74  152 1    
   149   75   76 2    
   150   75   77 1    
   151   77   78 1    
   152   77   79 1    
   153   77  153 1    
   154   78  154 1    
   155   78  155 1    
   156   78  156 1    
   157   79   80 am   BACKBONE|DICT|INTERRES
   158   79  157 1    
   159   80   81 2    
@<TRIPOS>SUBSTRUCTURE
     1 UNK         1 GROUP             0       ****    0 ROOT    
