@<TRIPOS>MOLECULE
3R207
157   159    1
SMALL
USER_CHARGES


@<TRIPOS>ATOM
      1 CA        -46.5871  -27.9760    3.2239 C.3       0 UNK        -0.1975 
      2 C         -47.9106  -27.2267    3.1672 C.2       0 UNK         0.4852 
      3 O         -48.2227  -26.6168    2.1438 O.2       0 UNK        -0.5216 
      4 N         -48.6868  -27.2818    4.2566 N.am      1 UNK        -0.4461 
      5 CA        -49.9513  -26.5675    4.4505 C.3       1 UNK         0.0864 
      6 C6        -50.9421  -27.3995    5.3153 C.3       14 UNK        -0.0898 
      7 S7        -50.2620  -27.9423    6.9221 S.3       14 UNK        -0.2598 
      8 C8        -51.4031  -29.2892    7.3682 C.3       14 UNK         0.0286 
      9 C9        -51.2208  -29.7010    8.8231 C.ar      14 UNK        -0.0844 
     10 C10       -49.9952  -30.2143    9.2574 C.ar      14 UNK        -0.0881 
     11 C11       -49.7997  -30.5523   10.5989 C.ar      14 UNK        -0.0643 
     12 C12       -50.8499  -30.4029   11.5073 C.ar      14 UNK        -0.0930 
     13 C13       -52.0826  -29.8972   11.0853 C.ar      14 UNK        -0.0827 
     14 C14       -52.2642  -29.5484    9.7428 C.ar      14 UNK        -0.1249 
     15 C15       -53.1939  -29.6718   12.0965 C.3       14 UNK         0.0141 
     16 S16       -54.4268  -31.0049   12.0635 S.3       14 UNK        -0.2313 
     17 C17       -55.3612  -30.6471   13.5901 C.3       14 UNK        -0.0915 
     18 CA        -56.5898  -29.7272   13.3581 C.3       13 UNK         0.0968 
     19 C         -57.5378  -29.7224   14.5941 C.2       13 UNK         0.5732 
     20 N         -57.8492  -28.5876   15.2110 N.am      13 UNK        -0.7310 
     21 O         -58.0193  -30.7787   14.9973 O.2       13 UNK        -0.5035 
     22 N         -56.1836  -28.3824   12.9237 N.am      13 UNK        -0.4233 
     23 C         -56.9142  -27.5837   12.1362 C.2       13 UNK         0.4989 
     24 O         -57.9722  -27.9340   11.6092 O.2       13 UNK        -0.4996 
     25 CA        -56.3782  -26.1553   11.8930 C.3       12 UNK         0.0216 
     26 CB        -57.4933  -25.1653   11.4948 C.3       12 UNK        -0.1964 
     27 N         -55.5908  -25.6079   13.0055 N.am      12 UNK        -0.4276 
     28 C         -55.9697  -25.4655   14.2833 C.2       12 UNK         0.5020 
     29 O         -57.0670  -25.8103   14.7282 O.2       12 UNK        -0.5489 
     30 CA        -54.9135  -24.8723   15.2321 C.3       11 UNK         0.0294 
     31 CB        -55.5486  -23.8697   16.2114 C.3       11 UNK        -0.2019 
     32 N         -54.1490  -25.8617   16.0020 N.am      11 UNK        -0.4493 
     33 C         -53.6781  -27.0555   15.6094 C.2       11 UNK         0.4932 
     34 O         -53.9117  -27.5914   14.5257 O.2       11 UNK        -0.5029 
     35 CA        -52.7014  -27.7150   16.5906 C.3       10 UNK         0.0280 
     36 CB        -52.4427  -29.2007   16.2813 C.3       10 UNK        -0.1976 
     37 N         -51.4471  -26.9771   16.4849 N.am      10 UNK        -0.4242 
     38 C         -51.0053  -26.0757   17.3703 C.2       10 UNK         0.5072 
     39 O         -51.5308  -25.8706   18.4653 O.2       10 UNK        -0.5224 
     40 CA        -49.8043  -25.2187   16.9347 C.3       9 UNK         0.0343 
     41 CB        -48.5017  -26.0329   16.9817 C.3       9 UNK        -0.2003 
     42 N         -49.9851  -24.6372   15.6000 N.am      9 UNK        -0.4272 
     43 C         -50.9370  -23.7446   15.2795 C.2       9 UNK         0.4988 
     44 O         -51.7482  -23.2854   16.0835 O.2       9 UNK        -0.5108 
     45 CA        -51.0046  -23.2875   13.8157 C.3       8 UNK         0.0248 
     46 CB        -50.0060  -22.1481   13.5527 C.3       8 UNK        -0.2001 
     47 N         -50.7357  -24.4009   12.9069 N.am      8 UNK        -0.4140 
     48 C         -51.6810  -25.1939   12.3843 C.2       8 UNK         0.5028 
     49 O         -52.8900  -25.0067   12.5247 O.2       8 UNK        -0.5428 
     50 CA        -51.2162  -26.3920   11.5408 C.3       7 UNK         0.0264 
     51 CB        -51.2652  -26.0283   10.0515 C.3       7 UNK        -0.1988 
     52 N         -49.8763  -26.8863   11.8651 N.am      7 UNK        -0.4454 
     53 C         -49.5080  -27.4295   13.0348 C.2       7 UNK         0.5027 
     54 O         -50.2830  -27.6335   13.9689 O.2       7 UNK        -0.5083 
     55 CA        -48.0006  -27.6968   13.2421 C.3       6 UNK         0.0844 
     56 C56       -47.6178  -29.1874   13.0484 C.3       14 UNK        -0.0967 
     57 S57       -47.2821  -29.6849   11.3217 S.3       14 UNK        -0.2604 
     58 C58       -48.4447  -31.0600   11.0594 C.3       14 UNK         0.0134 
     59 N         -47.1412  -26.7726   12.4909 N.am      6 UNK        -0.4116 
     60 C         -47.1537  -25.4379   12.6026 C.2       5 UNK         0.5034 
     61 O         -47.8621  -24.8403   13.4150 O.2       5 UNK        -0.5045 
     62 CA        -46.3092  -24.6191   11.6105 C.3       5 UNK         0.0224 
     63 CB        -44.9276  -24.2829   12.2031 C.3       5 UNK        -0.1978 
     64 N         -46.2009  -25.1949   10.2585 N.am      5 UNK        -0.4737 
     65 C         -45.5447  -26.2980    9.8601 C.2       4 UNK         0.5027 
     66 O         -44.9504  -27.0485   10.6328 O.2       4 UNK        -0.5211 
     67 CA        -45.5751  -26.6527    8.3590 C.3       4 UNK         0.0297 
     68 CB        -46.5086  -27.8494    8.1098 C.3       4 UNK        -0.1993 
     69 N         -45.9937  -25.5440    7.4998 N.am      4 UNK        -0.4486 
     70 C         -45.2887  -24.4276    7.2690 C.2       3 UNK         0.4961 
     71 O         -44.1430  -24.2457    7.6811 O.2       3 UNK        -0.5105 
     72 CA        -45.9820  -23.3148    6.4584 C.3       3 UNK         0.0299 
     73 CB        -45.4017  -23.2500    5.0362 C.3       3 UNK        -0.1972 
     74 N         -47.4411  -23.4449    6.3660 N.am      3 UNK        -0.4305 
     75 C         -48.3166  -23.4226    7.3799 C.2       2 UNK         0.5006 
     76 O         -47.9909  -23.3069    8.5622 O.2       2 UNK        -0.5106 
     77 CA        -49.7986  -23.6317    7.0183 C.3       2 UNK         0.0296 
     78 CB        -50.4034  -22.3785    6.3552 C.3       2 UNK        -0.2002 
     79 N         -50.0422  -24.8501    6.2281 N.am      2 UNK        -0.4032 
     80 C         -49.6581  -25.1409    4.9748 C.2       1 UNK         0.5000 
     81 O         -49.0574  -24.3426    4.2518 O.2       1 UNK        -0.5238 
     82 H82       -46.4450  -28.4840    4.1777 H         1 UNK         0.0889 
     83 H83       -45.7583  -27.2825    3.0833 H         1 UNK         0.0889 
     84 H84       -46.5445  -28.7235    2.4322 H         1 UNK         0.0889 
     85 H85       -48.3805  -27.8169    5.0568 H         1 UNK         0.3028 
     86 H86       -50.4262  -26.4301    3.4765 H         1 UNK         0.0864 
     87 H87       -51.2299  -28.2915    4.7562 H         1 UNK         0.0720 
     88 H88       -51.8709  -26.8507    5.4831 H         1 UNK         0.0720 
     89 H89       -51.2253  -30.1481    6.7196 H         1 UNK         0.0814 
     90 H90       -52.4292  -28.9655    7.1871 H         1 UNK         0.0814 
     91 H91       -49.1802  -30.3205    8.5542 H         1 UNK         0.1469 
     92 H92       -50.7007  -30.6560   12.5479 H         1 UNK         0.1381 
     93 H93       -53.2136  -29.1422    9.4216 H         1 UNK         0.1206 
     94 H94       -53.6872  -28.7221   11.8906 H         1 UNK         0.0813 
     95 H95       -52.7708  -29.5863   13.0972 H         1 UNK         0.0813 
     96 H96       -54.6961  -30.2211   14.3416 H         1 UNK         0.0638 
     97 H97       -55.6778  -31.6132   13.9873 H         1 UNK         0.0638 
     98 H98       -57.1754  -30.1788   12.5553 H         1 UNK         0.0568 
     99 H99       -58.4712  -28.6198   16.0022 H         1 UNK         0.3450 
    100 H100      -57.4884  -27.6912   14.8965 H         1 UNK         0.3450 
    101 H101      -55.3497  -28.0094   13.3717 H         1 UNK         0.2987 
    102 H102      -55.6896  -26.2355   11.0507 H         1 UNK         0.0766 
    103 H103      -57.0903  -24.1715   11.3002 H         1 UNK         0.0798 
    104 H104      -58.2478  -25.0741   12.2771 H         1 UNK         0.0798 
    105 H105      -58.0026  -25.4889   10.5862 H         1 UNK         0.0798 
    106 H106      -54.6227  -25.3658   12.7808 H         1 UNK         0.3198 
    107 H107      -54.1930  -24.3156   14.6319 H         1 UNK         0.0843 
    108 H108      -56.2192  -24.3635   16.9158 H         1 UNK         0.0831 
    109 H109      -56.1326  -23.1187   15.6775 H         1 UNK         0.0831 
    110 H110      -54.7882  -23.3383   16.7844 H         1 UNK         0.0831 
    111 H111      -53.8484  -25.5443   16.9129 H         1 UNK         0.3133 
    112 H112      -53.1217  -27.6459   17.5960 H         1 UNK         0.0566 
    113 H113      -51.7635  -29.6406   17.0114 H         1 UNK         0.0814 
    114 H114      -53.3701  -29.7728   16.3150 H         1 UNK         0.0814 
    115 H115      -52.0015  -29.3407   15.2946 H         1 UNK         0.0814 
    116 H116      -50.9686  -27.0701   15.5898 H         1 UNK         0.3091 
    117 H117      -49.7100  -24.3907   17.6406 H         1 UNK         0.0702 
    118 H118      -47.6491  -25.4457   16.6392 H         1 UNK         0.0785 
    119 H119      -48.5632  -26.9308   16.3680 H         1 UNK         0.0785 
    120 H120      -48.2857  -26.3553   18.0011 H         1 UNK         0.0785 
    121 H121      -49.3208  -24.9116   14.8855 H         1 UNK         0.2998 
    122 H122      -52.0085  -22.8981   13.6322 H         1 UNK         0.0697 
    123 H123      -48.9769  -22.4496   13.7500 H         1 UNK         0.0825 
    124 H124      -50.2203  -21.2905   14.1918 H         1 UNK         0.0825 
    125 H125      -50.0616  -21.8039   12.5199 H         1 UNK         0.0825 
    126 H126      -49.7607  -24.6352   12.7614 H         1 UNK         0.3029 
    127 H127      -51.9226  -27.1986   11.7284 H         1 UNK         0.0897 
    128 H128      -52.2562  -25.6750    9.7630 H         1 UNK         0.0792 
    129 H129      -51.0410  -26.8957    9.4362 H         1 UNK         0.0792 
    130 H130      -50.5484  -25.2446    9.8062 H         1 UNK         0.0792 
    131 H131      -49.1704  -26.7836   11.1515 H         1 UNK         0.3086 
    132 H132      -47.8126  -27.4722   14.2923 H         1 UNK         0.0583 
    133 H133      -46.7041  -29.3871   13.6104 H         1 UNK         0.1020 
    134 H134      -48.3692  -29.8416   13.4948 H         1 UNK         0.1020 
    135 H135      -48.0317  -31.7241   10.2986 H         1 UNK         0.0694 
    136 H136      -48.5352  -31.6602   11.9660 H         1 UNK         0.0694 
    137 H137      -46.5003  -27.1865   11.8197 H         1 UNK         0.2989 
    138 H138      -46.8399  -23.6746   11.4754 H         1 UNK         0.1055 
    139 H139      -45.0312  -23.7452   13.1467 H         1 UNK         0.0806 
    140 H140      -44.3521  -23.6476   11.5297 H         1 UNK         0.0806 
    141 H141      -44.3386  -25.1777   12.4059 H         1 UNK         0.0806 
    142 H142      -46.6878  -24.6642    9.5427 H         1 UNK         0.3061 
    143 H143      -44.5617  -26.9398    8.0706 H         1 UNK         0.0734 
    144 H144      -46.5308  -28.1289    7.0567 H         1 UNK         0.0832 
    145 H145      -46.1705  -28.7254    8.6646 H         1 UNK         0.0832 
    146 H146      -47.5312  -27.6409    8.4273 H         1 UNK         0.0832 
    147 H147      -46.9233  -25.5963    7.1123 H         1 UNK         0.3156 
    148 H148      -45.7686  -22.3697    6.9616 H         1 UNK         0.0589 
    149 H149      -45.6139  -24.1599    4.4730 H         1 UNK         0.0808 
    150 H150      -45.8110  -22.4074    4.4784 H         1 UNK         0.0808 
    151 H151      -44.3181  -23.1247    5.0592 H         1 UNK         0.0808 
    152 H152      -47.8305  -23.5948    5.4367 H         1 UNK         0.3098 
    153 H153      -50.3306  -23.7796    7.9586 H         1 UNK         0.0720 
    154 H154      -51.4675  -22.5105    6.1596 H         1 UNK         0.0791 
    155 H155      -49.9181  -22.1333    5.4103 H         1 UNK         0.0791 
    156 H156      -50.2994  -21.5087    7.0052 H         1 UNK         0.0791 
    157 H157      -50.4771  -25.6087    6.7396 H         1 UNK         0.3028 
@<TRIPOS>BOND
     1    1    2 1    
     2    1   82 1    
     3    1   83 1    
     4    1   84 1    
     5    2    3 2    
     6    2    4 am   BACKBONE|DICT|INTERRES
     7    4    5 1    
     8    4   85 1    
     9    5    6 1    
    10    5   80 1    
    11    5   86 1    
    12    6    7 1    
    13    6   87 1    
    14    6   88 1    
    15    7    8 1    
    16    8    9 1    
    17    8   89 1    
    18    8   90 1    
    19    9   10 ar   
    20    9   14 ar   
    21   10   11 ar   
    22   10   91 1    
    23   11   12 ar   
    24   11   58 1    
    25   12   13 ar   
    26   12   92 1    
    27   13   14 ar   
    28   13   15 1    
    29   14   93 1    
    30   15   16 1    
    31   15   94 1    
    32   15   95 1    
    33   16   17 1    
    34   17   18 1    
    35   17   96 1    
    36   17   97 1    
    37   18   19 1    
    38   18   22 1    
    39   18   98 1    
    40   19   20 am   BACKBONE|DICT|INTERRES
    41   19   21 2    
    42   20   99 1    
    43   20  100 1    
    44   22   23 am   BACKBONE|DICT|INTERRES
    45   22  101 1    
    46   23   24 2    
    47   23   25 1    
    48   25   26 1    
    49   25   27 1    
    50   25  102 1    
    51   26  103 1    
    52   26  104 1    
    53   26  105 1    
    54   27   28 am   BACKBONE|DICT|INTERRES
    55   27  106 1    
    56   28   29 2    
    57   28   30 1    
    58   30   31 1    
    59   30   32 1    
    60   30  107 1    
    61   31  108 1    
    62   31  109 1    
    63   31  110 1    
    64   32   33 am   BACKBONE|DICT|INTERRES
    65   32  111 1    
    66   33   34 2    
    67   33   35 1    
    68   35   36 1    
    69   35   37 1    
    70   35  112 1    
    71   36  113 1    
    72   36  114 1    
    73   36  115 1    
    74   37   38 am   BACKBONE|DICT|INTERRES
    75   37  116 1    
    76   38   39 2    
    77   38   40 1    
    78   40   41 1    
    79   40   42 1    
    80   40  117 1    
    81   41  118 1    
    82   41  119 1    
    83   41  120 1    
    84   42   43 am   BACKBONE|DICT|INTERRES
    85   42  121 1    
    86   43   44 2    
    87   43   45 1    
    88   45   46 1    
    89   45   47 1    
    90   45  122 1    
    91   46  123 1    
    92   46  124 1    
    93   46  125 1    
    94   47   48 am   BACKBONE|DICT|INTERRES
    95   47  126 1    
    96   48   49 2    
    97   48   50 1    
    98   50   51 1    
    99   50   52 1    
   100   50  127 1    
   101   51  128 1    
   102   51  129 1    
   103   51  130 1    
   104   52   53 am   BACKBONE|DICT|INTERRES
   105   52  131 1    
   106   53   54 2    
   107   53   55 1    
   108   55   56 1    
   109   55   59 1    
   110   55  132 1    
   111   56   57 1    
   112   56  133 1    
   113   56  134 1    
   114   57   58 1    
   115   58  135 1    
   116   58  136 1    
   117   59   60 am   BACKBONE|DICT|INTERRES
   118   59  137 1    
   119   60   61 2    
   120   60   62 1    
   121   62   63 1    
   122   62   64 1    
   123   62  138 1    
   124   63  139 1    
   125   63  140 1    
   126   63  141 1    
   127   64   65 am   BACKBONE|DICT|INTERRES
   128   64  142 1    
   129   65   66 2    
   130   65   67 1    
   131   67   68 1    
   132   67   69 1    
   133   67  143 1    
   134   68  144 1    
   135   68  145 1    
   136   68  146 1    
   137   69   70 am   BACKBONE|DICT|INTERRES
   138   69  147 1    
   139   70   71 2    
   140   70   72 1    
   141   72   73 1    
   142   72   74 1    
   143   72  148 1    
   144   73  149 1    
   145   73  150 1    
   146   73  151 1    
   147   74   75 am   BACKBONE|DICT|INTERRES
   148   74  152 1    
   149   75   76 2    
   150   75   77 1    
   151   77   78 1    
   152   77   79 1    
   153   77  153 1    
   154   78  154 1    
   155   78  155 1    
   156   78  156 1    
   157   79   80 am   BACKBONE|DICT|INTERRES
   158   79  157 1    
   159   80   81 2    
@<TRIPOS>SUBSTRUCTURE
     1 UNK         1 GROUP             0       ****    0 ROOT    
