@<TRIPOS>MOLECULE
3R207
157   159    1
SMALL
USER_CHARGES


@<TRIPOS>ATOM
      1 CA        -47.9285  -31.1512    3.8992 C.3       0 UNK        -0.1975 
      2 C         -48.5854  -30.3554    2.7731 C.2       0 UNK         0.4852 
      3 O         -48.4607  -30.7551    1.6164 O.2       0 UNK        -0.5216 
      4 N         -49.2965  -29.2464    3.0288 N.am      1 UNK        -0.4461 
      5 CA        -49.5333  -28.5519    4.3034 C.3       1 UNK         0.0864 
      6 C6        -50.2910  -29.3852    5.3759 C.3       14 UNK        -0.0898 
      7 S7        -51.8714  -30.0606    4.7585 S.3       14 UNK        -0.2598 
      8 C8        -52.2677  -31.3001    6.0348 C.3       14 UNK         0.0286 
      9 C9        -52.5072  -30.6497    7.3893 C.ar      14 UNK        -0.0844 
     10 C10       -51.4473  -30.4950    8.2852 C.ar      14 UNK        -0.0881 
     11 C11       -51.6352  -29.8388    9.5031 C.ar      14 UNK        -0.0643 
     12 C12       -52.9067  -29.3695    9.8449 C.ar      14 UNK        -0.0930 
     13 C13       -53.9831  -29.5451    8.9691 C.ar      14 UNK        -0.0827 
     14 C14       -53.7770  -30.1820    7.7405 C.ar      14 UNK        -0.1249 
     15 C15       -55.3649  -29.0323    9.3416 C.3       14 UNK         0.0141 
     16 S16       -56.2505  -30.2387   10.3746 S.3       14 UNK        -0.2313 
     17 C17       -57.9138  -29.4878   10.4563 C.3       14 UNK        -0.0915 
     18 CA        -58.3110  -28.9606   11.8607 C.3       13 UNK         0.0968 
     19 C         -58.5227  -30.1058   12.8959 C.2       13 UNK         0.5732 
     20 N         -57.8130  -30.1323   14.0181 N.am      13 UNK        -0.7310 
     21 O         -59.3622  -30.9779   12.6834 O.2       13 UNK        -0.5035 
     22 N         -57.4265  -27.8716   12.3043 N.am      13 UNK        -0.4233 
     23 C         -57.7681  -26.9141   13.1738 C.2       13 UNK         0.4989 
     24 O         -58.8846  -26.8252   13.6881 O.2       13 UNK        -0.4996 
     25 CA        -56.6672  -25.9000   13.5387 C.3       12 UNK         0.0216 
     26 CB        -57.1869  -24.7467   14.4179 C.3       12 UNK        -0.1964 
     27 N         -55.5434  -26.5413   14.2232 N.am      12 UNK        -0.4276 
     28 C         -54.5801  -27.2636   13.6406 C.2       12 UNK         0.5020 
     29 O         -54.5437  -27.4871   12.4296 O.2       12 UNK        -0.5489 
     30 CA        -53.4807  -27.8080   14.5702 C.3       11 UNK         0.0294 
     31 CB        -52.4293  -28.6470   13.8223 C.3       11 UNK        -0.2019 
     32 N         -52.8022  -26.7205   15.2764 N.am      11 UNK        -0.4493 
     33 C         -53.2531  -26.1073   16.3791 C.2       11 UNK         0.4932 
     34 O         -54.3300  -26.3863   16.9108 O.2       11 UNK        -0.5029 
     35 CA        -52.3701  -24.9850   16.9593 C.3       10 UNK         0.0280 
     36 CB        -52.7080  -24.6459   18.4264 C.3       10 UNK        -0.1976 
     37 N         -50.9357  -25.2442   16.7905 N.am      10 UNK        -0.4242 
     38 C         -50.2201  -26.2621   17.2963 C.2       10 UNK         0.5072 
     39 O         -50.6781  -27.1055   18.0687 O.2       10 UNK        -0.5224 
     40 CA        -48.7480  -26.3927   16.8536 C.3       9 UNK         0.0343 
     41 CB        -48.5701  -27.6354   15.9645 C.3       9 UNK        -0.2003 
     42 N         -48.2348  -25.2214   16.1374 N.am      9 UNK        -0.4272 
     43 C         -47.9376  -24.0448   16.7064 C.2       9 UNK         0.4988 
     44 O         -47.9856  -23.8390   17.9195 O.2       9 UNK        -0.5108 
     45 CA        -47.5615  -22.8908   15.7603 C.3       8 UNK         0.0248 
     46 CB        -46.0616  -22.9330   15.4279 C.3       8 UNK        -0.2001 
     47 N         -48.3467  -22.8758   14.5198 N.am      8 UNK        -0.4140 
     48 C         -49.6783  -22.7164   14.4598 C.2       8 UNK         0.5028 
     49 O         -50.3898  -22.5360   15.4475 O.2       8 UNK        -0.5428 
     50 CA        -50.3416  -22.8379   13.0771 C.3       7 UNK         0.0264 
     51 CB        -50.1267  -21.5647   12.2443 C.3       7 UNK        -0.1988 
     52 N         -49.8729  -24.0088   12.3335 N.am      7 UNK        -0.4454 
     53 C         -50.0502  -25.2791   12.7273 C.2       7 UNK         0.5027 
     54 O         -50.6951  -25.6037   13.7250 O.2       7 UNK        -0.5083 
     55 CA        -49.3444  -26.3699   11.9028 C.3       6 UNK         0.0844 
     56 C56       -50.2068  -26.8182   10.6990 C.3       14 UNK        -0.0967 
     57 S57       -49.4353  -28.2279    9.8390 S.3       14 UNK        -0.2604 
     58 C58       -50.4459  -29.6232   10.4220 C.3       14 UNK         0.0134 
     59 N         -48.0026  -25.9392   11.5016 N.am      6 UNK        -0.4116 
     60 C         -46.9676  -25.7778   12.3362 C.2       5 UNK         0.5034 
     61 O         -47.0188  -25.9980   13.5456 O.2       5 UNK        -0.5045 
     62 CA        -45.6689  -25.2326   11.7199 C.3       5 UNK         0.0224 
     63 CB        -44.8648  -26.3614   11.0594 C.3       5 UNK        -0.1978 
     64 N         -45.9190  -24.1671   10.7447 N.am      5 UNK        -0.4737 
     65 C         -46.4103  -22.9635   11.0731 C.2       4 UNK         0.5027 
     66 O         -46.6554  -22.6210   12.2285 O.2       4 UNK        -0.5211 
     67 CA        -46.7294  -21.9922    9.9255 C.3       4 UNK         0.0297 
     68 CB        -45.5004  -21.1312    9.5961 C.3       4 UNK        -0.1993 
     69 N         -47.2084  -22.6469    8.7061 N.am      4 UNK        -0.4486 
     70 C         -48.2755  -23.4530    8.6146 C.2       3 UNK         0.4961 
     71 O         -48.9826  -23.7674    9.5727 O.2       3 UNK        -0.5105 
     72 CA        -48.6104  -24.0124    7.2209 C.3       3 UNK         0.0299 
     73 CB        -48.0817  -23.1380    6.0613 C.3       3 UNK        -0.1972 
     74 N         -48.1812  -25.4034    7.0369 N.am      3 UNK        -0.4305 
     75 C         -46.9487  -25.9177    7.1864 C.2       2 UNK         0.5006 
     76 O         -45.9979  -25.2956    7.6635 O.2       2 UNK        -0.5106 
     77 CA        -46.7200  -27.3649    6.7007 C.3       2 UNK         0.0296 
     78 CB        -46.1906  -28.2680    7.8266 C.3       2 UNK        -0.2002 
     79 N         -47.9110  -27.9782    6.0950 N.am      2 UNK        -0.4032 
     80 C         -48.2428  -27.8586    4.7988 C.2       1 UNK         0.5000 
     81 O         -47.5737  -27.2116    3.9897 O.2       1 UNK        -0.5238 
     82 H82       -47.4699  -30.5161    4.6534 H         1 UNK         0.0889 
     83 H83       -47.1404  -31.7874    3.4968 H         1 UNK         0.0889 
     84 H84       -48.6608  -31.8001    4.3783 H         1 UNK         0.0889 
     85 H85       -49.6895  -28.7652    2.2323 H         1 UNK         0.3028 
     86 H86       -50.1946  -27.7234    4.0438 H         1 UNK         0.0864 
     87 H87       -49.6799  -30.2022    5.7577 H         1 UNK         0.0720 
     88 H88       -50.5339  -28.7535    6.2324 H         1 UNK         0.0720 
     89 H89       -51.4609  -32.0322    6.0971 H         1 UNK         0.0814 
     90 H90       -53.1566  -31.8531    5.7275 H         1 UNK         0.0814 
     91 H91       -50.4620  -30.8535    8.0213 H         1 UNK         0.1469 
     92 H92       -53.0612  -28.8639   10.7878 H         1 UNK         0.1381 
     93 H93       -54.6022  -30.3042    7.0519 H         1 UNK         0.1206 
     94 H94       -55.2824  -28.0838    9.8740 H         1 UNK         0.0813 
     95 H95       -55.9433  -28.8310    8.4385 H         1 UNK         0.0813 
     96 H96       -58.6353  -30.2316   10.1134 H         1 UNK         0.0638 
     97 H97       -57.9792  -28.6729    9.7341 H         1 UNK         0.0638 
     98 H98       -59.3031  -28.5212   11.7405 H         1 UNK         0.0568 
     99 H99       -57.1294  -29.4185   14.2056 H         1 UNK         0.3450 
    100 H100      -57.9667  -30.8754   14.6809 H         1 UNK         0.3450 
    101 H101      -56.4610  -27.9112   11.9921 H         1 UNK         0.2987 
    102 H102      -56.3053  -25.4661   12.6039 H         1 UNK         0.0766 
    103 H103      -56.4060  -24.0099   14.6072 H         1 UNK         0.0798 
    104 H104      -57.5503  -25.1045   15.3823 H         1 UNK         0.0798 
    105 H105      -58.0114  -24.2242   13.9309 H         1 UNK         0.0798 
    106 H106      -55.4834  -26.4175   15.2294 H         1 UNK         0.3198 
    107 H107      -53.9656  -28.4598   15.3002 H         1 UNK         0.0843 
    108 H108      -52.8939  -29.4858   13.3023 H         1 UNK         0.0831 
    109 H109      -51.6892  -29.0592   14.5084 H         1 UNK         0.0831 
    110 H110      -51.9007  -28.0512   13.0797 H         1 UNK         0.0831 
    111 H111      -51.9541  -26.3621   14.8392 H         1 UNK         0.3133 
    112 H112      -52.5841  -24.0983   16.3612 H         1 UNK         0.0566 
    113 H113      -52.0728  -23.8445   18.8036 H         1 UNK         0.0814 
    114 H114      -53.7416  -24.3109   18.5217 H         1 UNK         0.0814 
    115 H115      -52.5859  -25.5089   19.0815 H         1 UNK         0.0814 
    116 H116      -50.4631  -24.6035   16.1634 H         1 UNK         0.3091 
    117 H117      -48.1489  -26.5307   17.7560 H         1 UNK         0.0702 
    118 H118      -47.5257  -27.7794   15.6873 H         1 UNK         0.0785 
    119 H119      -49.1532  -27.5590   15.0463 H         1 UNK         0.0785 
    120 H120      -48.8948  -28.5389   16.4821 H         1 UNK         0.0785 
    121 H121      -48.0879  -25.3305   15.1387 H         1 UNK         0.2998 
    122 H122      -47.7656  -21.9560   16.2865 H         1 UNK         0.0697 
    123 H123      -45.7982  -23.8288   14.8645 H         1 UNK         0.0825 
    124 H124      -45.4585  -22.9287   16.3368 H         1 UNK         0.0825 
    125 H125      -45.7623  -22.0672   14.8368 H         1 UNK         0.0825 
    126 H126      -47.8219  -22.9606   13.6512 H         1 UNK         0.3029 
    127 H127      -51.4154  -22.9607   13.2353 H         1 UNK         0.0897 
    128 H128      -50.6051  -21.6422   11.2677 H         1 UNK         0.0792 
    129 H129      -50.5532  -20.6962   12.7477 H         1 UNK         0.0792 
    130 H130      -49.0691  -21.3584   12.0841 H         1 UNK         0.0792 
    131 H131      -49.3793  -23.8385   11.4605 H         1 UNK         0.3086 
    132 H132      -49.2256  -27.2329   12.5617 H         1 UNK         0.0583 
    133 H133      -51.2154  -27.0895   11.0150 H         1 UNK         0.1020 
    134 H134      -50.3304  -26.0047    9.9824 H         1 UNK         0.1020 
    135 H135      -49.8284  -30.5226   10.4328 H         1 UNK         0.0694 
    136 H136      -50.7632  -29.4620   11.4525 H         1 UNK         0.0694 
    137 H137      -47.8898  -25.6794   10.5326 H         1 UNK         0.2989 
    138 H138      -45.0690  -24.8153   12.5320 H         1 UNK         0.1055 
    139 H139      -44.6390  -27.1515   11.7769 H         1 UNK         0.0806 
    140 H140      -43.9150  -25.9973   10.6676 H         1 UNK         0.0806 
    141 H141      -45.4155  -26.8153   10.2368 H         1 UNK         0.0806 
    142 H142      -45.7696  -24.3819    9.7651 H         1 UNK         0.3061 
    143 H143      -47.5254  -21.3295   10.2690 H         1 UNK         0.0734 
    144 H144      -45.1366  -20.6153   10.4861 H         1 UNK         0.0832 
    145 H145      -44.6769  -21.7330    9.2093 H         1 UNK         0.0832 
    146 H146      -45.7363  -20.3666    8.8557 H         1 UNK         0.0832 
    147 H147      -46.6703  -22.4882    7.8666 H         1 UNK         0.3156 
    148 H148      -49.6995  -24.0157    7.1540 H         1 UNK         0.0589 
    149 H149      -46.9938  -23.1569    5.9870 H         1 UNK         0.0808 
    150 H150      -48.4771  -23.4819    5.1054 H         1 UNK         0.0808 
    151 H151      -48.3911  -22.0980    6.1766 H         1 UNK         0.0808 
    152 H152      -48.8966  -26.0266    6.6943 H         1 UNK         0.3098 
    153 H153      -45.9342  -27.3121    5.9440 H         1 UNK         0.0720 
    154 H154      -45.2112  -27.9269    8.1635 H         1 UNK         0.0791 
    155 H155      -46.0684  -29.2971    7.4884 H         1 UNK         0.0791 
    156 H156      -46.8486  -28.2746    8.6932 H         1 UNK         0.0791 
    157 H157      -48.5028  -28.5154    6.7130 H         1 UNK         0.3028 
@<TRIPOS>BOND
     1    1    2 1    
     2    1   82 1    
     3    1   83 1    
     4    1   84 1    
     5    2    3 2    
     6    2    4 am   BACKBONE|DICT|INTERRES
     7    4    5 1    
     8    4   85 1    
     9    5    6 1    
    10    5   80 1    
    11    5   86 1    
    12    6    7 1    
    13    6   87 1    
    14    6   88 1    
    15    7    8 1    
    16    8    9 1    
    17    8   89 1    
    18    8   90 1    
    19    9   10 ar   
    20    9   14 ar   
    21   10   11 ar   
    22   10   91 1    
    23   11   12 ar   
    24   11   58 1    
    25   12   13 ar   
    26   12   92 1    
    27   13   14 ar   
    28   13   15 1    
    29   14   93 1    
    30   15   16 1    
    31   15   94 1    
    32   15   95 1    
    33   16   17 1    
    34   17   18 1    
    35   17   96 1    
    36   17   97 1    
    37   18   19 1    
    38   18   22 1    
    39   18   98 1    
    40   19   20 am   BACKBONE|DICT|INTERRES
    41   19   21 2    
    42   20   99 1    
    43   20  100 1    
    44   22   23 am   BACKBONE|DICT|INTERRES
    45   22  101 1    
    46   23   24 2    
    47   23   25 1    
    48   25   26 1    
    49   25   27 1    
    50   25  102 1    
    51   26  103 1    
    52   26  104 1    
    53   26  105 1    
    54   27   28 am   BACKBONE|DICT|INTERRES
    55   27  106 1    
    56   28   29 2    
    57   28   30 1    
    58   30   31 1    
    59   30   32 1    
    60   30  107 1    
    61   31  108 1    
    62   31  109 1    
    63   31  110 1    
    64   32   33 am   BACKBONE|DICT|INTERRES
    65   32  111 1    
    66   33   34 2    
    67   33   35 1    
    68   35   36 1    
    69   35   37 1    
    70   35  112 1    
    71   36  113 1    
    72   36  114 1    
    73   36  115 1    
    74   37   38 am   BACKBONE|DICT|INTERRES
    75   37  116 1    
    76   38   39 2    
    77   38   40 1    
    78   40   41 1    
    79   40   42 1    
    80   40  117 1    
    81   41  118 1    
    82   41  119 1    
    83   41  120 1    
    84   42   43 am   BACKBONE|DICT|INTERRES
    85   42  121 1    
    86   43   44 2    
    87   43   45 1    
    88   45   46 1    
    89   45   47 1    
    90   45  122 1    
    91   46  123 1    
    92   46  124 1    
    93   46  125 1    
    94   47   48 am   BACKBONE|DICT|INTERRES
    95   47  126 1    
    96   48   49 2    
    97   48   50 1    
    98   50   51 1    
    99   50   52 1    
   100   50  127 1    
   101   51  128 1    
   102   51  129 1    
   103   51  130 1    
   104   52   53 am   BACKBONE|DICT|INTERRES
   105   52  131 1    
   106   53   54 2    
   107   53   55 1    
   108   55   56 1    
   109   55   59 1    
   110   55  132 1    
   111   56   57 1    
   112   56  133 1    
   113   56  134 1    
   114   57   58 1    
   115   58  135 1    
   116   58  136 1    
   117   59   60 am   BACKBONE|DICT|INTERRES
   118   59  137 1    
   119   60   61 2    
   120   60   62 1    
   121   62   63 1    
   122   62   64 1    
   123   62  138 1    
   124   63  139 1    
   125   63  140 1    
   126   63  141 1    
   127   64   65 am   BACKBONE|DICT|INTERRES
   128   64  142 1    
   129   65   66 2    
   130   65   67 1    
   131   67   68 1    
   132   67   69 1    
   133   67  143 1    
   134   68  144 1    
   135   68  145 1    
   136   68  146 1    
   137   69   70 am   BACKBONE|DICT|INTERRES
   138   69  147 1    
   139   70   71 2    
   140   70   72 1    
   141   72   73 1    
   142   72   74 1    
   143   72  148 1    
   144   73  149 1    
   145   73  150 1    
   146   73  151 1    
   147   74   75 am   BACKBONE|DICT|INTERRES
   148   74  152 1    
   149   75   76 2    
   150   75   77 1    
   151   77   78 1    
   152   77   79 1    
   153   77  153 1    
   154   78  154 1    
   155   78  155 1    
   156   78  156 1    
   157   79   80 am   BACKBONE|DICT|INTERRES
   158   79  157 1    
   159   80   81 2    
@<TRIPOS>SUBSTRUCTURE
     1 UNK         1 GROUP             0       ****    0 ROOT    
