@<TRIPOS>MOLECULE
3R207
157   159    1
SMALL
USER_CHARGES


@<TRIPOS>ATOM
      1 CA        -48.8865  -26.9034    4.9093 C.3       0 UNK        -0.1975 
      2 C         -49.8328  -26.3660    5.9712 C.2       0 UNK         0.4852 
      3 O         -49.3809  -26.0203    7.0651 O.2       0 UNK        -0.5216 
      4 N         -51.1348  -26.2892    5.6557 N.am      1 UNK        -0.4461 
      5 CA        -52.2309  -25.8623    6.5376 C.3       1 UNK         0.0864 
      6 C6        -52.5451  -26.9059    7.6464 C.3       14 UNK        -0.0898 
      7 S7        -53.2305  -28.4568    6.9810 S.3       14 UNK        -0.2598 
      8 C8        -51.7843  -29.5741    7.0528 C.3       14 UNK         0.0286 
      9 C9        -51.2818  -29.9484    8.4507 C.ar      14 UNK        -0.0844 
     10 C10       -49.9945  -30.4837    8.5698 C.ar      14 UNK        -0.0881 
     11 C11       -49.4923  -30.8852    9.8117 C.ar      14 UNK        -0.0643 
     12 C12       -50.2835  -30.7343   10.9526 C.ar      14 UNK        -0.0930 
     13 C13       -51.5658  -30.1889   10.8561 C.ar      14 UNK        -0.0827 
     14 C14       -52.0643  -29.8096    9.6054 C.ar      14 UNK        -0.1249 
     15 C15       -52.4102  -29.9891   12.1031 C.3       14 UNK         0.0141 
     16 S16       -53.6580  -31.3027   12.2781 S.3       14 UNK        -0.2313 
     17 C17       -54.7276  -30.5877   13.5732 C.3       14 UNK        -0.0915 
     18 CA        -55.9930  -29.8942   12.9951 C.3       13 UNK         0.0968 
     19 C         -56.9407  -29.3937   14.1244 C.2       13 UNK         0.5732 
     20 N         -57.3334  -28.1241   14.1672 N.am      13 UNK        -0.7310 
     21 O         -57.3452  -30.1812   14.9764 O.2       13 UNK        -0.5035 
     22 N         -55.6400  -28.8436   12.0315 N.am      13 UNK        -0.4233 
     23 C         -56.3297  -28.5459   10.9232 C.2       13 UNK         0.4989 
     24 O         -57.3234  -29.1720   10.5505 O.2       13 UNK        -0.4996 
     25 CA        -55.8196  -27.3540   10.0820 C.3       12 UNK         0.0216 
     26 CB        -56.9450  -26.6645    9.2821 C.3       12 UNK        -0.1964 
     27 N         -55.0503  -26.3634   10.8501 N.am      12 UNK        -0.4276 
     28 C         -55.4704  -25.6694   11.9171 C.2       12 UNK         0.5020 
     29 O         -56.6052  -25.7428   12.3954 O.2       12 UNK        -0.5489 
     30 CA        -54.4131  -24.7925   12.6089 C.3       11 UNK         0.0294 
     31 CB        -54.7473  -23.3014   12.4441 C.3       11 UNK        -0.2019 
     32 N         -54.2886  -25.1119   14.0340 N.am      11 UNK        -0.4493 
     33 C         -54.0204  -26.3275   14.5328 C.2       11 UNK         0.4932 
     34 O         -53.8140  -27.3231   13.8365 O.2       11 UNK        -0.5029 
     35 CA        -53.9483  -26.4165   16.0695 C.3       10 UNK         0.0280 
     36 CB        -53.8799  -27.8699   16.5870 C.3       10 UNK        -0.1976 
     37 N         -52.8427  -25.6039   16.5968 N.am      10 UNK        -0.4242 
     38 C         -51.5400  -25.7530   16.3157 C.2       10 UNK         0.5072 
     39 O         -51.0654  -26.6920   15.6709 O.2       10 UNK        -0.5224 
     40 CA        -50.5949  -24.6621   16.8337 C.3       9 UNK         0.0343 
     41 CB        -49.9525  -25.0741   18.1682 C.3       9 UNK        -0.2003 
     42 N         -49.5604  -24.5149   15.8186 N.am      9 UNK        -0.4272 
     43 C         -49.2674  -23.3948   15.1510 C.2       9 UNK         0.4988 
     44 O         -49.6408  -22.2708   15.4886 O.2       9 UNK        -0.5108 
     45 CA        -48.4444  -23.5658   13.8604 C.3       8 UNK         0.0248 
     46 CB        -46.9504  -23.3295   14.1299 C.3       8 UNK        -0.2001 
     47 N         -48.6288  -24.8793   13.2292 N.am      8 UNK        -0.4140 
     48 C         -49.7708  -25.2966   12.6571 C.2       8 UNK         0.5028 
     49 O         -50.7792  -24.5945   12.5758 O.2       8 UNK        -0.5428 
     50 CA        -49.8108  -26.7163   12.0640 C.3       7 UNK         0.0264 
     51 CB        -50.2500  -26.6726   10.5930 C.3       7 UNK        -0.1988 
     52 N         -48.5111  -27.3833   12.1309 N.am      7 UNK        -0.4454 
     53 C         -48.2222  -28.4413   12.9025 C.2       7 UNK         0.5027 
     54 O         -49.0335  -28.9780   13.6570 O.2       7 UNK        -0.5083 
     55 CA        -46.7849  -29.0085   12.8453 C.3       6 UNK         0.0844 
     56 C56       -46.7333  -30.3827   12.1299 C.3       14 UNK        -0.0967 
     57 S57       -46.8259  -30.2829   10.3043 S.3       14 UNK        -0.2604 
     58 C58       -48.1088  -31.5111    9.9074 C.3       14 UNK         0.0134 
     59 N         -45.8017  -28.0751   12.2905 N.am      6 UNK        -0.4116 
     60 C         -45.4053  -26.9288   12.8560 C.2       5 UNK         0.5034 
     61 O         -45.7836  -26.5422   13.9611 O.2       5 UNK        -0.5045 
     62 CA        -44.4800  -26.0328   12.0128 C.3       5 UNK         0.0224 
     63 CB        -43.0062  -26.3570   12.3038 C.3       5 UNK        -0.1978 
     64 N         -44.7236  -26.1148   10.5645 N.am      5 UNK        -0.4737 
     65 C         -45.8876  -25.8219    9.9685 C.2       4 UNK         0.5027 
     66 O         -46.9079  -25.5096   10.5850 O.2       4 UNK        -0.5211 
     67 CA        -45.9369  -25.9603    8.4400 C.3       4 UNK         0.0297 
     68 CB        -46.3805  -27.3782    8.0471 C.3       4 UNK        -0.1993 
     69 N         -46.8753  -24.9982    7.8658 N.am      4 UNK        -0.4486 
     70 C         -46.6348  -23.6859    7.7375 C.2       3 UNK         0.4961 
     71 O         -45.5501  -23.1627    7.9963 O.2       3 UNK        -0.5105 
     72 CA        -47.7904  -22.8009    7.2490 C.3       3 UNK         0.0299 
     73 CB        -47.8754  -22.8138    5.7139 C.3       3 UNK        -0.1972 
     74 N         -49.0694  -23.2379    7.8119 N.am      3 UNK        -0.4305 
     75 C         -49.8784  -22.4876    8.5728 C.2       2 UNK         0.5006 
     76 O         -49.6376  -21.3172    8.8743 O.2       2 UNK        -0.5106 
     77 CA        -51.1671  -23.1506    9.1065 C.3       2 UNK         0.0296 
     78 CB        -52.3395  -22.1553    9.2389 C.3       2 UNK        -0.2002 
     79 N         -51.5738  -24.3507    8.3644 N.am      2 UNK        -0.4032 
     80 C         -51.9770  -24.4392    7.0862 C.2       1 UNK         0.5000 
     81 O         -52.1200  -23.4734    6.3345 O.2       1 UNK        -0.5238 
     82 H82       -48.4778  -27.8617    5.2284 H         1 UNK         0.0889 
     83 H83       -48.0564  -26.2145    4.7580 H         1 UNK         0.0889 
     84 H84       -49.3869  -27.0478    3.9520 H         1 UNK         0.0889 
     85 H85       -51.4252  -26.5572    4.7258 H         1 UNK         0.3028 
     86 H86       -53.1173  -25.7759    5.9066 H         1 UNK         0.0864 
     87 H87       -53.2878  -26.5127    8.3415 H         1 UNK         0.0720 
     88 H88       -51.6557  -27.1351    8.2318 H         1 UNK         0.0720 
     89 H89       -50.9726  -29.1221    6.4820 H         1 UNK         0.0814 
     90 H90       -52.0460  -30.4955    6.5314 H         1 UNK         0.0814 
     91 H91       -49.3819  -30.6041    7.6866 H         1 UNK         0.1469 
     92 H92       -49.9009  -31.0367   11.9174 H         1 UNK         0.1381 
     93 H93       -53.0658  -29.4094    9.5441 H         1 UNK         0.1206 
     94 H94       -51.7833  -29.9598   12.9962 H         1 UNK         0.0813 
     95 H95       -52.8956  -29.0160   12.0427 H         1 UNK         0.0813 
     96 H96       -54.1460  -29.8972   14.1852 H         1 UNK         0.0638 
     97 H97       -55.0161  -31.4042   14.2374 H         1 UNK         0.0638 
     98 H98       -56.5590  -30.6643   12.4682 H         1 UNK         0.0568 
     99 H99       -57.0292  -27.4531   13.4707 H         1 UNK         0.3450 
    100 H100      -57.9573  -27.8318   14.9016 H         1 UNK         0.3450 
    101 H101      -54.8791  -28.2415   12.3241 H         1 UNK         0.2987 
    102 H102      -55.1262  -27.7872    9.3607 H         1 UNK         0.0766 
    103 H103      -57.7163  -26.2591    9.9378 H         1 UNK         0.0798 
    104 H104      -57.4311  -27.3656    8.6025 H         1 UNK         0.0798 
    105 H105      -56.5563  -25.8469    8.6750 H         1 UNK         0.0798 
    106 H106      -54.0867  -26.2530   10.5715 H         1 UNK         0.3198 
    107 H107      -53.4397  -24.9771   12.1497 H         1 UNK         0.0843 
    108 H108      -55.6767  -23.0382   12.9509 H         1 UNK         0.0831 
    109 H109      -54.8685  -23.0417   11.3920 H         1 UNK         0.0831 
    110 H110      -53.9527  -22.6703   12.8431 H         1 UNK         0.0831 
    111 H111      -54.4528  -24.3535   14.6790 H         1 UNK         0.3133 
    112 H112      -54.8706  -25.9786   16.4543 H         1 UNK         0.0566 
    113 H113      -54.7604  -28.4321   16.2740 H         1 UNK         0.0814 
    114 H114      -53.0071  -28.4013   16.2060 H         1 UNK         0.0814 
    115 H115      -53.8437  -27.9027   17.6756 H         1 UNK         0.0814 
    116 H116      -53.1178  -24.8029   17.1488 H         1 UNK         0.3091 
    117 H117      -51.1498  -23.7304   16.9633 H         1 UNK         0.0702 
    118 H118      -49.2470  -24.3191   18.5156 H         1 UNK         0.0785 
    119 H119      -49.4154  -26.0199   18.0834 H         1 UNK         0.0785 
    120 H120      -50.7088  -25.1951   18.9446 H         1 UNK         0.0785 
    121 H121      -49.2654  -25.3935   15.4121 H         1 UNK         0.2998 
    122 H122      -48.7858  -22.8075   13.1524 H         1 UNK         0.0697 
    123 H123      -46.5450  -24.0606   14.8303 H         1 UNK         0.0825 
    124 H124      -46.7838  -22.3405   14.5589 H         1 UNK         0.0825 
    125 H125      -46.3694  -23.3845   13.2092 H         1 UNK         0.0825 
    126 H126      -47.8379  -25.5086   13.2443 H         1 UNK         0.3029 
    127 H127      -50.5587  -27.2769   12.6300 H         1 UNK         0.0897 
    128 H128      -49.6114  -26.0150   10.0013 H         1 UNK         0.0792 
    129 H129      -51.2764  -26.3161   10.5139 H         1 UNK         0.0792 
    130 H130      -50.2098  -27.6632   10.1412 H         1 UNK         0.0792 
    131 H131      -47.7867  -26.9731   11.5476 H         1 UNK         0.3086 
    132 H132      -46.4976  -29.1810   13.8849 H         1 UNK         0.0583 
    133 H133      -45.7922  -30.8761   12.3776 H         1 UNK         0.1020 
    134 H134      -47.5091  -31.0453   12.5175 H         1 UNK         0.1020 
    135 H135      -47.8512  -31.9774    8.9552 H         1 UNK         0.0694 
    136 H136      -48.1049  -32.3185   10.6410 H         1 UNK         0.0694 
    137 H137      -45.4573  -28.3013   11.3686 H         1 UNK         0.2989 
    138 H138      -44.6694  -25.0014   12.3174 H         1 UNK         0.1055 
    139 H139      -42.7938  -26.2829   13.3716 H         1 UNK         0.0806 
    140 H140      -42.3382  -25.6616   11.7953 H         1 UNK         0.0806 
    141 H141      -42.7436  -27.3678   11.9890 H         1 UNK         0.0806 
    142 H142      -43.9364  -26.3778    9.9878 H         1 UNK         0.3061 
    143 H143      -44.9429  -25.7725    8.0284 H         1 UNK         0.0734 
    144 H144      -46.4350  -27.4917    6.9645 H         1 UNK         0.0832 
    145 H145      -45.6758  -28.1251    8.4140 H         1 UNK         0.0832 
    146 H146      -47.3617  -27.6237    8.4579 H         1 UNK         0.0832 
    147 H147      -47.7981  -25.3629    7.6414 H         1 UNK         0.3156 
    148 H148      -47.5658  -21.7797    7.5635 H         1 UNK         0.0589 
    149 H149      -48.0946  -23.8086    5.3272 H         1 UNK         0.0808 
    150 H150      -48.6537  -22.1389    5.3574 H         1 UNK         0.0808 
    151 H151      -46.9343  -22.4889    5.2680 H         1 UNK         0.0808 
    152 H152      -49.3381  -24.1995    7.6242 H         1 UNK         0.3098 
    153 H153      -50.9213  -23.4939   10.1119 H         1 UNK         0.0720 
    154 H154      -53.2388  -22.6487    9.6057 H         1 UNK         0.0791 
    155 H155      -52.5801  -21.6832    8.2861 H         1 UNK         0.0791 
    156 H156      -52.0984  -21.3587    9.9437 H         1 UNK         0.0791 
    157 H157      -51.4269  -25.2215    8.8524 H         1 UNK         0.3028 
@<TRIPOS>BOND
     1    1    2 1    
     2    1   82 1    
     3    1   83 1    
     4    1   84 1    
     5    2    3 2    
     6    2    4 am   BACKBONE|DICT|INTERRES
     7    4    5 1    
     8    4   85 1    
     9    5    6 1    
    10    5   80 1    
    11    5   86 1    
    12    6    7 1    
    13    6   87 1    
    14    6   88 1    
    15    7    8 1    
    16    8    9 1    
    17    8   89 1    
    18    8   90 1    
    19    9   10 ar   
    20    9   14 ar   
    21   10   11 ar   
    22   10   91 1    
    23   11   12 ar   
    24   11   58 1    
    25   12   13 ar   
    26   12   92 1    
    27   13   14 ar   
    28   13   15 1    
    29   14   93 1    
    30   15   16 1    
    31   15   94 1    
    32   15   95 1    
    33   16   17 1    
    34   17   18 1    
    35   17   96 1    
    36   17   97 1    
    37   18   19 1    
    38   18   22 1    
    39   18   98 1    
    40   19   20 am   BACKBONE|DICT|INTERRES
    41   19   21 2    
    42   20   99 1    
    43   20  100 1    
    44   22   23 am   BACKBONE|DICT|INTERRES
    45   22  101 1    
    46   23   24 2    
    47   23   25 1    
    48   25   26 1    
    49   25   27 1    
    50   25  102 1    
    51   26  103 1    
    52   26  104 1    
    53   26  105 1    
    54   27   28 am   BACKBONE|DICT|INTERRES
    55   27  106 1    
    56   28   29 2    
    57   28   30 1    
    58   30   31 1    
    59   30   32 1    
    60   30  107 1    
    61   31  108 1    
    62   31  109 1    
    63   31  110 1    
    64   32   33 am   BACKBONE|DICT|INTERRES
    65   32  111 1    
    66   33   34 2    
    67   33   35 1    
    68   35   36 1    
    69   35   37 1    
    70   35  112 1    
    71   36  113 1    
    72   36  114 1    
    73   36  115 1    
    74   37   38 am   BACKBONE|DICT|INTERRES
    75   37  116 1    
    76   38   39 2    
    77   38   40 1    
    78   40   41 1    
    79   40   42 1    
    80   40  117 1    
    81   41  118 1    
    82   41  119 1    
    83   41  120 1    
    84   42   43 am   BACKBONE|DICT|INTERRES
    85   42  121 1    
    86   43   44 2    
    87   43   45 1    
    88   45   46 1    
    89   45   47 1    
    90   45  122 1    
    91   46  123 1    
    92   46  124 1    
    93   46  125 1    
    94   47   48 am   BACKBONE|DICT|INTERRES
    95   47  126 1    
    96   48   49 2    
    97   48   50 1    
    98   50   51 1    
    99   50   52 1    
   100   50  127 1    
   101   51  128 1    
   102   51  129 1    
   103   51  130 1    
   104   52   53 am   BACKBONE|DICT|INTERRES
   105   52  131 1    
   106   53   54 2    
   107   53   55 1    
   108   55   56 1    
   109   55   59 1    
   110   55  132 1    
   111   56   57 1    
   112   56  133 1    
   113   56  134 1    
   114   57   58 1    
   115   58  135 1    
   116   58  136 1    
   117   59   60 am   BACKBONE|DICT|INTERRES
   118   59  137 1    
   119   60   61 2    
   120   60   62 1    
   121   62   63 1    
   122   62   64 1    
   123   62  138 1    
   124   63  139 1    
   125   63  140 1    
   126   63  141 1    
   127   64   65 am   BACKBONE|DICT|INTERRES
   128   64  142 1    
   129   65   66 2    
   130   65   67 1    
   131   67   68 1    
   132   67   69 1    
   133   67  143 1    
   134   68  144 1    
   135   68  145 1    
   136   68  146 1    
   137   69   70 am   BACKBONE|DICT|INTERRES
   138   69  147 1    
   139   70   71 2    
   140   70   72 1    
   141   72   73 1    
   142   72   74 1    
   143   72  148 1    
   144   73  149 1    
   145   73  150 1    
   146   73  151 1    
   147   74   75 am   BACKBONE|DICT|INTERRES
   148   74  152 1    
   149   75   76 2    
   150   75   77 1    
   151   77   78 1    
   152   77   79 1    
   153   77  153 1    
   154   78  154 1    
   155   78  155 1    
   156   78  156 1    
   157   79   80 am   BACKBONE|DICT|INTERRES
   158   79  157 1    
   159   80   81 2    
@<TRIPOS>SUBSTRUCTURE
     1 UNK         1 GROUP             0       ****    0 ROOT    
