@<TRIPOS>MOLECULE
3R207
157   159    1
SMALL
USER_CHARGES


@<TRIPOS>ATOM
      1 CA        -46.1076  -31.0383   11.1545 C.3       0 UNK        -0.1975 
      2 C         -46.4716  -29.7263   10.4774 C.2       0 UNK         0.4852 
      3 O         -46.4247  -28.6788   11.1183 O.2       0 UNK        -0.5216 
      4 N         -46.8191  -29.7724    9.1838 N.am      1 UNK        -0.4461 
      5 CA        -47.2847  -28.6663    8.3311 C.3       1 UNK         0.0864 
      6 C6        -48.6026  -28.0247    8.8414 C.3       14 UNK        -0.0898 
      7 S7        -49.5784  -27.3094    7.4787 S.3       14 UNK        -0.2598 
      8 C8        -50.7415  -28.6565    7.1007 C.3       14 UNK         0.0286 
      9 C9        -51.9331  -28.6397    8.0437 C.ar      14 UNK        -0.0844 
     10 C10       -52.8902  -27.6302    7.9265 C.ar      14 UNK        -0.0881 
     11 C11       -53.9774  -27.5781    8.8007 C.ar      14 UNK        -0.0643 
     12 C12       -54.1238  -28.5694    9.7749 C.ar      14 UNK        -0.0930 
     13 C13       -53.1851  -29.6028    9.8914 C.ar      14 UNK        -0.0827 
     14 C14       -52.0870  -29.6242    9.0238 C.ar      14 UNK        -0.1249 
     15 C15       -53.3474  -30.7277   10.9127 C.3       14 UNK         0.0141 
     16 S16       -53.9453  -30.1831   12.5475 S.3       14 UNK        -0.2313 
     17 C17       -55.7421  -30.4567   12.3779 C.3       14 UNK        -0.0915 
     18 CA        -56.6328  -29.5594   13.2815 C.3       13 UNK         0.0968 
     19 C         -56.5880  -29.9404   14.7904 C.2       13 UNK         0.5732 
     20 N         -56.6385  -28.9959   15.7229 N.am      13 UNK        -0.7310 
     21 O         -56.5416  -31.1202   15.1311 O.2       13 UNK        -0.5035 
     22 N         -56.4257  -28.1223   13.0313 N.am      13 UNK        -0.4233 
     23 C         -57.3992  -27.2614   12.7020 C.2       13 UNK         0.4989 
     24 O         -58.5548  -27.6063   12.4468 O.2       13 UNK        -0.4996 
     25 CA        -57.0340  -25.7602   12.6530 C.3       12 UNK         0.0216 
     26 CB        -58.2713  -24.8442   12.7664 C.3       12 UNK        -0.1964 
     27 N         -56.0180  -25.3558   13.6333 N.am      12 UNK        -0.4276 
     28 C         -56.0437  -25.5340   14.9623 C.2       12 UNK         0.5020 
     29 O         -56.9624  -26.0791   15.5771 O.2       12 UNK        -0.5489 
     30 CA        -54.7814  -25.0848   15.7215 C.3       11 UNK         0.0294 
     31 CB        -55.1456  -24.3041   16.9958 C.3       11 UNK        -0.2019 
     32 N         -53.8985  -26.2028   16.0781 N.am      11 UNK        -0.4493 
     33 C         -53.4210  -27.1297   15.2360 C.2       11 UNK         0.4932 
     34 O         -53.7331  -27.2038   14.0463 O.2       11 UNK        -0.5029 
     35 CA        -52.4269  -28.1397   15.8187 C.3       10 UNK         0.0280 
     36 CB        -53.1613  -29.4060   16.3007 C.3       10 UNK        -0.1976 
     37 N         -51.4374  -28.4440   14.7864 N.am      10 UNK        -0.4242 
     38 C         -50.3329  -29.1883   14.9240 C.2       10 UNK         0.5072 
     39 O         -50.0143  -29.7708   15.9617 O.2       10 UNK        -0.5224 
     40 CA        -49.3963  -29.2569   13.7084 C.3       9 UNK         0.0343 
     41 CB        -50.1002  -29.8197   12.4613 C.3       9 UNK        -0.2003 
     42 N         -48.8775  -27.9223   13.4255 N.am      9 UNK        -0.4272 
     43 C         -47.7612  -27.4081   13.9627 C.2       9 UNK         0.4988 
     44 O         -46.9762  -28.0489   14.6637 O.2       9 UNK        -0.5108 
     45 CA        -47.4830  -25.9131   13.7113 C.3       8 UNK         0.0248 
     46 CB        -46.5872  -25.7207   12.4798 C.3       8 UNK        -0.2001 
     47 N         -48.7102  -25.1289   13.5577 N.am      8 UNK        -0.4140 
     48 C         -49.5644  -24.8826   14.5635 C.2       8 UNK         0.5028 
     49 O         -49.3356  -25.1787   15.7369 O.2       8 UNK        -0.5428 
     50 CA        -50.9116  -24.2158   14.2268 C.3       7 UNK         0.0264 
     51 CB        -50.9059  -22.7394   14.6548 C.3       7 UNK        -0.1988 
     52 N         -51.3269  -24.3024   12.8239 N.am      7 UNK        -0.4454 
     53 C         -51.5140  -25.4305   12.1212 C.2       7 UNK         0.5027 
     54 O         -51.2847  -26.5586   12.5539 O.2       7 UNK        -0.5083 
     55 CA        -51.9845  -25.2504   10.6662 C.3       6 UNK         0.0844 
     56 C56       -53.5174  -25.0100   10.6519 C.3       14 UNK        -0.0967 
     57 S57       -54.2049  -24.8150    8.9735 S.3       14 UNK        -0.2604 
     58 C58       -54.9831  -26.4405    8.6993 C.3       14 UNK         0.0134 
     59 N         -51.2385  -24.2067    9.9446 N.am      6 UNK        -0.4116 
     60 C         -49.9026  -24.1066    9.8631 C.2       5 UNK         0.5034 
     61 O         -49.1148  -24.8494   10.4505 O.2       5 UNK        -0.5045 
     62 CA        -49.3431  -22.9602    9.0148 C.3       5 UNK         0.0224 
     63 CB        -48.4320  -22.0509    9.8575 C.3       5 UNK        -0.1978 
     64 N         -48.5658  -23.5197    7.9126 N.am      5 UNK        -0.4737 
     65 C         -49.0413  -23.7257    6.6764 C.2       4 UNK         0.5027 
     66 O         -50.1917  -23.4367    6.3425 O.2       4 UNK        -0.5211 
     67 CA        -48.0867  -24.3561    5.6364 C.3       4 UNK         0.0297 
     68 CB        -48.3910  -23.8975    4.1941 C.3       4 UNK        -0.1993 
     69 N         -46.6649  -24.1834    5.9568 N.am      4 UNK        -0.4486 
     70 C         -45.9891  -23.0280    6.0746 C.2       3 UNK         0.4961 
     71 O         -46.4680  -21.9258    5.8038 O.2       3 UNK        -0.5105 
     72 CA        -44.5357  -23.1092    6.5945 C.3       3 UNK         0.0299 
     73 CB        -44.1703  -21.8988    7.4806 C.3       3 UNK        -0.1972 
     74 N         -44.2053  -24.3658    7.2843 N.am      3 UNK        -0.4305 
     75 C         -44.7984  -24.8720    8.3759 C.2       2 UNK         0.5006 
     76 O         -45.7240  -24.3273    8.9811 O.2       2 UNK        -0.5106 
     77 CA        -44.2932  -26.2481    8.8370 C.3       2 UNK         0.0296 
     78 CB        -43.5259  -26.1340   10.1631 C.3       2 UNK        -0.2002 
     79 N         -45.3903  -27.2079    8.9778 N.am      2 UNK        -0.4032 
     80 C         -46.2046  -27.6091    7.9919 C.2       1 UNK         0.5000 
     81 O         -46.1059  -27.2015    6.8309 O.2       1 UNK        -0.5238 
     82 H82       -46.7552  -31.2039   12.0152 H         1 UNK         0.0889 
     83 H83       -45.0766  -31.0050   11.5055 H         1 UNK         0.0889 
     84 H84       -46.2121  -31.8893   10.4818 H         1 UNK         0.0889 
     85 H85       -46.7861  -30.6679    8.7160 H         1 UNK         0.3028 
     86 H86       -47.5105  -29.1608    7.3847 H         1 UNK         0.0864 
     87 H87       -49.2195  -28.7665    9.3501 H         1 UNK         0.0720 
     88 H88       -48.4028  -27.2528    9.5862 H         1 UNK         0.0720 
     89 H89       -50.2231  -29.6160    7.1338 H         1 UNK         0.0814 
     90 H90       -51.0960  -28.5368    6.0760 H         1 UNK         0.0814 
     91 H91       -52.7703  -26.8622    7.1743 H         1 UNK         0.1469 
     92 H92       -54.9696  -28.5278   10.4441 H         1 UNK         0.1381 
     93 H93       -51.3522  -30.4134    9.1064 H         1 UNK         0.1206 
     94 H94       -54.0177  -31.4857   10.5058 H         1 UNK         0.0813 
     95 H95       -52.3904  -31.2274   11.0664 H         1 UNK         0.0813 
     96 H96       -56.0286  -30.3011   11.3377 H         1 UNK         0.0638 
     97 H97       -55.9421  -31.5122   12.5697 H         1 UNK         0.0638 
     98 H98       -57.6563  -29.8158   13.0047 H         1 UNK         0.0568 
     99 H99       -56.7408  -28.0145   15.4845 H         1 UNK         0.3450 
    100 H100      -56.6316  -29.2723   16.6907 H         1 UNK         0.3450 
    101 H101      -55.5008  -27.7713   13.2655 H         1 UNK         0.2987 
    102 H102      -56.5930  -25.5943   11.6693 H         1 UNK         0.0766 
    103 H103      -58.9835  -25.0410   11.9639 H         1 UNK         0.0798 
    104 H104      -57.9942  -23.7923   12.6978 H         1 UNK         0.0798 
    105 H105      -58.7952  -24.9920   13.7115 H         1 UNK         0.0798 
    106 H106      -55.1769  -24.9586   13.2417 H         1 UNK         0.3198 
    107 H107      -54.2116  -24.4134   15.0759 H         1 UNK         0.0843 
    108 H108      -55.6625  -24.9336   17.7215 H         1 UNK         0.0831 
    109 H109      -55.8055  -23.4667   16.7647 H         1 UNK         0.0831 
    110 H110      -54.2593  -23.8919   17.4784 H         1 UNK         0.0831 
    111 H111      -53.6162  -26.2502   17.0465 H         1 UNK         0.3133 
    112 H112      -51.9066  -27.6780   16.6600 H         1 UNK         0.0566 
    113 H113      -53.6155  -29.9467   15.4711 H         1 UNK         0.0814 
    114 H114      -53.9584  -29.1541   17.0009 H         1 UNK         0.0814 
    115 H115      -52.4913  -30.0923   16.8174 H         1 UNK         0.0814 
    116 H116      -51.6097  -27.9719   13.8992 H         1 UNK         0.3091 
    117 H117      -48.5705  -29.9288   13.9522 H         1 UNK         0.0702 
    118 H118      -49.4008  -29.9325   11.6333 H         1 UNK         0.0785 
    119 H119      -50.9139  -29.1791   12.1194 H         1 UNK         0.0785 
    120 H120      -50.5225  -30.8037   12.6672 H         1 UNK         0.0785 
    121 H121      -49.5035  -27.3049   12.9180 H         1 UNK         0.2998 
    122 H122      -46.9436  -25.5289   14.5797 H         1 UNK         0.0697 
    123 H123      -46.3262  -24.6733   12.3290 H         1 UNK         0.0825 
    124 H124      -47.0673  -26.0800   11.5690 H         1 UNK         0.0825 
    125 H125      -45.6584  -26.2797   12.5960 H         1 UNK         0.0825 
    126 H126      -48.9724  -24.8797   12.6101 H         1 UNK         0.3029 
    127 H127      -51.6678  -24.7354   14.8166 H         1 UNK         0.0897 
    128 H128      -50.1912  -22.1545   14.0744 H         1 UNK         0.0792 
    129 H129      -50.6318  -22.6378   15.7061 H         1 UNK         0.0792 
    130 H130      -51.8901  -22.2858   14.5360 H         1 UNK         0.0792 
    131 H131      -51.5003  -23.4240   12.3573 H         1 UNK         0.3086 
    132 H132      -51.7771  -26.1900   10.1506 H         1 UNK         0.0583 
    133 H133      -54.0314  -25.8325   11.1544 H         1 UNK         0.1020 
    134 H134      -53.7713  -24.1086   11.2127 H         1 UNK         0.1020 
    135 H135      -55.7979  -26.5721    9.4128 H         1 UNK         0.0694 
    136 H136      -55.4368  -26.4531    7.7074 H         1 UNK         0.0694 
    137 H137      -51.8059  -23.5688    9.4054 H         1 UNK         0.2989 
    138 H138      -50.1653  -22.3525    8.6304 H         1 UNK         0.1055 
    139 H139      -48.0396  -21.2257    9.2630 H         1 UNK         0.0806 
    140 H140      -47.5813  -22.5976   10.2681 H         1 UNK         0.0806 
    141 H141      -48.9783  -21.6181   10.6964 H         1 UNK         0.0806 
    142 H142      -47.6277  -23.8324    8.1435 H         1 UNK         0.3061 
    143 H143      -48.2656  -25.4305    5.6762 H         1 UNK         0.0734 
    144 H144      -48.3130  -22.8153    4.0873 H         1 UNK         0.0832 
    145 H145      -47.7094  -24.3569    3.4785 H         1 UNK         0.0832 
    146 H146      -49.4031  -24.1787    3.9008 H         1 UNK         0.0832 
    147 H147      -46.1850  -25.0382    6.2169 H         1 UNK         0.3156 
    148 H148      -43.8993  -23.0744    5.7091 H         1 UNK         0.0589 
    149 H149      -43.1407  -21.9599    7.8328 H         1 UNK         0.0808 
    150 H150      -44.8202  -21.8269    8.3535 H         1 UNK         0.0808 
    151 H151      -44.2656  -20.9632    6.9280 H         1 UNK         0.0808 
    152 H152      -43.4721  -24.9114    6.8513 H         1 UNK         0.3098 
    153 H153      -43.6111  -26.6503    8.0851 H         1 UNK         0.0720 
    154 H154      -42.6366  -25.5138   10.0438 H         1 UNK         0.0791 
    155 H155      -43.1966  -27.1095   10.5215 H         1 UNK         0.0791 
    156 H156      -44.1346  -25.6756   10.9415 H         1 UNK         0.0791 
    157 H157      -45.5825  -27.5746    9.9077 H         1 UNK         0.3028 
@<TRIPOS>BOND
     1    1    2 1    
     2    1   82 1    
     3    1   83 1    
     4    1   84 1    
     5    2    3 2    
     6    2    4 am   BACKBONE|DICT|INTERRES
     7    4    5 1    
     8    4   85 1    
     9    5    6 1    
    10    5   80 1    
    11    5   86 1    
    12    6    7 1    
    13    6   87 1    
    14    6   88 1    
    15    7    8 1    
    16    8    9 1    
    17    8   89 1    
    18    8   90 1    
    19    9   10 ar   
    20    9   14 ar   
    21   10   11 ar   
    22   10   91 1    
    23   11   12 ar   
    24   11   58 1    
    25   12   13 ar   
    26   12   92 1    
    27   13   14 ar   
    28   13   15 1    
    29   14   93 1    
    30   15   16 1    
    31   15   94 1    
    32   15   95 1    
    33   16   17 1    
    34   17   18 1    
    35   17   96 1    
    36   17   97 1    
    37   18   19 1    
    38   18   22 1    
    39   18   98 1    
    40   19   20 am   BACKBONE|DICT|INTERRES
    41   19   21 2    
    42   20   99 1    
    43   20  100 1    
    44   22   23 am   BACKBONE|DICT|INTERRES
    45   22  101 1    
    46   23   24 2    
    47   23   25 1    
    48   25   26 1    
    49   25   27 1    
    50   25  102 1    
    51   26  103 1    
    52   26  104 1    
    53   26  105 1    
    54   27   28 am   BACKBONE|DICT|INTERRES
    55   27  106 1    
    56   28   29 2    
    57   28   30 1    
    58   30   31 1    
    59   30   32 1    
    60   30  107 1    
    61   31  108 1    
    62   31  109 1    
    63   31  110 1    
    64   32   33 am   BACKBONE|DICT|INTERRES
    65   32  111 1    
    66   33   34 2    
    67   33   35 1    
    68   35   36 1    
    69   35   37 1    
    70   35  112 1    
    71   36  113 1    
    72   36  114 1    
    73   36  115 1    
    74   37   38 am   BACKBONE|DICT|INTERRES
    75   37  116 1    
    76   38   39 2    
    77   38   40 1    
    78   40   41 1    
    79   40   42 1    
    80   40  117 1    
    81   41  118 1    
    82   41  119 1    
    83   41  120 1    
    84   42   43 am   BACKBONE|DICT|INTERRES
    85   42  121 1    
    86   43   44 2    
    87   43   45 1    
    88   45   46 1    
    89   45   47 1    
    90   45  122 1    
    91   46  123 1    
    92   46  124 1    
    93   46  125 1    
    94   47   48 am   BACKBONE|DICT|INTERRES
    95   47  126 1    
    96   48   49 2    
    97   48   50 1    
    98   50   51 1    
    99   50   52 1    
   100   50  127 1    
   101   51  128 1    
   102   51  129 1    
   103   51  130 1    
   104   52   53 am   BACKBONE|DICT|INTERRES
   105   52  131 1    
   106   53   54 2    
   107   53   55 1    
   108   55   56 1    
   109   55   59 1    
   110   55  132 1    
   111   56   57 1    
   112   56  133 1    
   113   56  134 1    
   114   57   58 1    
   115   58  135 1    
   116   58  136 1    
   117   59   60 am   BACKBONE|DICT|INTERRES
   118   59  137 1    
   119   60   61 2    
   120   60   62 1    
   121   62   63 1    
   122   62   64 1    
   123   62  138 1    
   124   63  139 1    
   125   63  140 1    
   126   63  141 1    
   127   64   65 am   BACKBONE|DICT|INTERRES
   128   64  142 1    
   129   65   66 2    
   130   65   67 1    
   131   67   68 1    
   132   67   69 1    
   133   67  143 1    
   134   68  144 1    
   135   68  145 1    
   136   68  146 1    
   137   69   70 am   BACKBONE|DICT|INTERRES
   138   69  147 1    
   139   70   71 2    
   140   70   72 1    
   141   72   73 1    
   142   72   74 1    
   143   72  148 1    
   144   73  149 1    
   145   73  150 1    
   146   73  151 1    
   147   74   75 am   BACKBONE|DICT|INTERRES
   148   74  152 1    
   149   75   76 2    
   150   75   77 1    
   151   77   78 1    
   152   77   79 1    
   153   77  153 1    
   154   78  154 1    
   155   78  155 1    
   156   78  156 1    
   157   79   80 am   BACKBONE|DICT|INTERRES
   158   79  157 1    
   159   80   81 2    
@<TRIPOS>SUBSTRUCTURE
     1 UNK         1 GROUP             0       ****    0 ROOT    
