@<TRIPOS>MOLECULE
3R207
157   159    1
SMALL
USER_CHARGES


@<TRIPOS>ATOM
      1 CA        -46.9797  -27.8297    7.5714 C.3       0 UNK        -0.1975 
      2 C         -47.6183  -28.3063    6.2800 C.2       0 UNK         0.4852 
      3 O         -47.1799  -27.9185    5.1951 O.2       0 UNK        -0.5216 
      4 N         -48.6560  -29.1457    6.3820 N.am      1 UNK        -0.4461 
      5 CA        -49.3358  -29.7825    5.2491 C.3       1 UNK         0.0864 
      6 C6        -49.9880  -31.1409    5.6292 C.3       14 UNK        -0.0898 
      7 S7        -48.8806  -32.2390    6.5849 S.3       14 UNK        -0.2598 
      8 C8        -49.7685  -32.3940    8.1716 C.3       14 UNK         0.0286 
      9 C9        -49.7891  -31.0948    8.9688 C.ar      14 UNK        -0.0844 
     10 C10       -48.7663  -30.8022    9.8788 C.ar      14 UNK        -0.0881 
     11 C11       -48.8114  -29.6312   10.6440 C.ar      14 UNK        -0.0643 
     12 C12       -49.8708  -28.7364   10.4678 C.ar      14 UNK        -0.0930 
     13 C13       -50.8988  -29.0184    9.5659 C.ar      14 UNK        -0.0827 
     14 C14       -50.8579  -30.2035    8.8299 C.ar      14 UNK        -0.1249 
     15 C15       -52.0652  -28.0585    9.3963 C.3       14 UNK         0.0141 
     16 S16       -53.4558  -28.5309   10.4682 S.3       14 UNK        -0.2313 
     17 C17       -54.6971  -27.2642   10.0326 C.3       14 UNK        -0.0915 
     18 CA        -54.9473  -26.2487   11.1852 C.3       13 UNK         0.0968 
     19 C         -55.8621  -25.0550   10.7777 C.2       13 UNK         0.5732 
     20 N         -56.3187  -24.2428   11.7228 N.am      13 UNK        -0.7310 
     21 O         -56.1507  -24.8442    9.6017 O.2       13 UNK        -0.5035 
     22 N         -55.3434  -26.9053   12.4415 N.am      13 UNK        -0.4233 
     23 C         -56.5088  -27.5192   12.6928 C.2       13 UNK         0.4989 
     24 O         -57.4439  -27.5909   11.8947 O.2       13 UNK        -0.4996 
     25 CA        -56.6574  -28.1697   14.0775 C.3       12 UNK         0.0216 
     26 CB        -56.0031  -29.5617   14.0885 C.3       12 UNK        -0.1964 
     27 N         -56.0462  -27.3363   15.1140 N.am      12 UNK        -0.4276 
     28 C         -56.7100  -26.4649   15.8862 C.2       12 UNK         0.5020 
     29 O         -57.9371  -26.3592   15.9042 O.2       12 UNK        -0.5489 
     30 CA        -55.8666  -25.5357   16.7836 C.3       11 UNK         0.0294 
     31 CB        -55.6889  -26.1525   18.1803 C.3       11 UNK        -0.2019 
     32 N         -54.5489  -25.2185   16.2235 N.am      11 UNK        -0.4493 
     33 C         -54.3466  -24.5564   15.0752 C.2       11 UNK         0.4932 
     34 O         -55.2512  -24.0506   14.4111 O.2       11 UNK        -0.5029 
     35 CA        -52.9064  -24.4962   14.5335 C.3       10 UNK         0.0280 
     36 CB        -52.2807  -23.1246   14.8253 C.3       10 UNK        -0.1976 
     37 N         -52.0121  -25.5727   14.9940 N.am      10 UNK        -0.4242 
     38 C         -52.2358  -26.8840   14.7945 C.2       10 UNK         0.5072 
     39 O         -53.2774  -27.3098   14.2943 O.2       10 UNK        -0.5224 
     40 CA        -51.1581  -27.9072   15.1953 C.3       9 UNK         0.0343 
     41 CB        -50.7143  -28.7077   13.9642 C.3       9 UNK        -0.2003 
     42 N         -49.9746  -27.3045   15.8062 N.am      9 UNK        -0.4272 
     43 C         -49.8125  -27.1049   17.1220 C.2       9 UNK         0.4988 
     44 O         -50.6387  -27.4392   17.9716 O.2       9 UNK        -0.5108 
     45 CA        -48.5207  -26.3912   17.5719 C.3       8 UNK         0.0248 
     46 CB        -47.4644  -27.4201   18.0062 C.3       8 UNK        -0.2001 
     47 N         -47.9422  -25.5066   16.5538 N.am      8 UNK        -0.4140 
     48 C         -48.5792  -24.4711   15.9899 C.2       8 UNK         0.5028 
     49 O         -49.7076  -24.1125   16.3236 O.2       8 UNK        -0.5428 
     50 CA        -47.8817  -23.7389   14.8319 C.3       7 UNK         0.0264 
     51 CB        -47.3116  -22.3957   15.3142 C.3       7 UNK        -0.1988 
     52 N         -46.8239  -24.4874   14.1425 N.am      7 UNK        -0.4454 
     53 C         -46.9575  -25.6644   13.5122 C.2       7 UNK         0.5027 
     54 O         -47.9756  -26.3582   13.5606 O.2       7 UNK        -0.5083 
     55 CA        -45.7592  -26.0816   12.6315 C.3       6 UNK         0.0844 
     56 C56       -45.5984  -27.6232   12.4566 C.3       14 UNK        -0.0967 
     57 S57       -46.4071  -28.3307   10.9720 S.3       14 UNK        -0.2604 
     58 C58       -47.7369  -29.3368   11.6814 C.3       14 UNK         0.0134 
     59 N         -45.8840  -25.3859   11.3523 N.am      6 UNK        -0.4116 
     60 C         -45.6349  -24.0931   11.1100 C.2       5 UNK         0.5034 
     61 O         -45.0080  -23.3541   11.8697 O.2       5 UNK        -0.5045 
     62 CA        -46.2822  -23.5245    9.8337 C.3       5 UNK         0.0224 
     63 CB        -45.4229  -23.8280    8.5962 C.3       5 UNK        -0.1978 
     64 N         -47.6353  -24.0636    9.6416 N.am      5 UNK        -0.4737 
     65 C         -48.6688  -23.8273   10.4615 C.2       4 UNK         0.5027 
     66 O         -48.6548  -22.9707   11.3460 O.2       4 UNK        -0.5211 
     67 CA        -49.9063  -24.7221   10.2701 C.3       4 UNK         0.0297 
     68 CB        -50.9156  -24.5922   11.4255 C.3       4 UNK        -0.1993 
     69 N         -50.5801  -24.4834    8.9910 N.am      4 UNK        -0.4486 
     70 C         -50.1433  -24.9407    7.8117 C.2       3 UNK         0.4961 
     71 O         -49.1130  -25.6053    7.6792 O.2       3 UNK        -0.5105 
     72 CA        -50.9732  -24.5832    6.5750 C.3       3 UNK         0.0299 
     73 CB        -50.7492  -23.1120    6.1741 C.3       3 UNK        -0.1972 
     74 N         -50.5652  -25.4724    5.4910 N.am      3 UNK        -0.4305 
     75 C         -51.2256  -25.6941    4.3490 C.2       2 UNK         0.5006 
     76 O         -52.2987  -25.1615    4.0631 O.2       2 UNK        -0.5106 
     77 CA        -50.5796  -26.6664    3.3456 C.3       2 UNK         0.0296 
     78 CB        -49.6713  -25.9019    2.3686 C.3       2 UNK        -0.2002 
     79 N         -49.8066  -27.7317    3.9896 N.am      2 UNK        -0.4032 
     80 C         -50.3364  -28.8010    4.5984 C.2       1 UNK         0.5000 
     81 O         -51.5499  -29.0077    4.6713 O.2       1 UNK        -0.5238 
     82 H82       -47.6971  -27.8555    8.3910 H         1 UNK         0.0889 
     83 H83       -46.6285  -26.8043    7.4653 H         1 UNK         0.0889 
     84 H84       -46.1304  -28.4609    7.8302 H         1 UNK         0.0889 
     85 H85       -48.9859  -29.4270    7.2966 H         1 UNK         0.3028 
     86 H86       -48.5818  -30.0070    4.4910 H         1 UNK         0.0864 
     87 H87       -50.2755  -31.6731    4.7208 H         1 UNK         0.0720 
     88 H88       -50.9158  -30.9970    6.1796 H         1 UNK         0.0720 
     89 H89       -49.2909  -33.1773    8.7621 H         1 UNK         0.0814 
     90 H90       -50.7863  -32.7407    7.9853 H         1 UNK         0.0814 
     91 H91       -47.9448  -31.4941   10.0055 H         1 UNK         0.1469 
     92 H92       -49.9043  -27.8281   11.0497 H         1 UNK         0.1381 
     93 H93       -51.6735  -30.4325    8.1588 H         1 UNK         0.1206 
     94 H94       -52.3905  -28.0519    8.3546 H         1 UNK         0.0813 
     95 H95       -51.7563  -27.0406    9.6308 H         1 UNK         0.0813 
     96 H96       -54.3679  -26.7457    9.1306 H         1 UNK         0.0638 
     97 H97       -55.6247  -27.7726    9.7654 H         1 UNK         0.0638 
     98 H98       -53.9875  -25.7819   11.4004 H         1 UNK         0.0568 
     99 H99       -56.0373  -24.3519   12.6925 H         1 UNK         0.3450 
    100 H100      -56.9087  -23.4703   11.4597 H         1 UNK         0.3450 
    101 H101      -54.6098  -26.9667   13.1430 H         1 UNK         0.2987 
    102 H102      -57.7236  -28.2959   14.2780 H         1 UNK         0.0766 
    103 H103      -56.1331  -30.0522   15.0533 H         1 UNK         0.0798 
    104 H104      -54.9334  -29.5106   13.8799 H         1 UNK         0.0798 
    105 H105      -56.4511  -30.2080   13.3325 H         1 UNK         0.0798 
    106 H106      -55.0306  -27.3259   15.1323 H         1 UNK         0.3198 
    107 H107      -56.4162  -24.5978   16.8894 H         1 UNK         0.0843 
    108 H108      -55.1232  -27.0844   18.1426 H         1 UNK         0.0831 
    109 H109      -56.6561  -26.3771   18.6324 H         1 UNK         0.0831 
    110 H110      -55.1700  -25.4700   18.8537 H         1 UNK         0.0831 
    111 H111      -53.7434  -25.5920   16.7046 H         1 UNK         0.3133 
    112 H112      -52.9850  -24.5970   13.4501 H         1 UNK         0.0566 
    113 H113      -51.3117  -23.0176   14.3375 H         1 UNK         0.0814 
    114 H114      -52.9156  -22.3174   14.4571 H         1 UNK         0.0814 
    115 H115      -52.1396  -22.9661   15.8951 H         1 UNK         0.0814 
    116 H116      -51.1555  -25.2786   15.4532 H         1 UNK         0.3091 
    117 H117      -51.6211  -28.6024   15.8986 H         1 UNK         0.0702 
    118 H118      -51.5576  -29.2048   13.4820 H         1 UNK         0.0785 
    119 H119      -50.2589  -28.0489   13.2280 H         1 UNK         0.0785 
    120 H120      -49.9895  -29.4782   14.2268 H         1 UNK         0.0785 
    121 H121      -49.2502  -26.9890   15.1690 H         1 UNK         0.2998 
    122 H122      -48.7756  -25.7736   18.4355 H         1 UNK         0.0697 
    123 H123      -47.1494  -28.0514   17.1742 H         1 UNK         0.0825 
    124 H124      -47.8569  -28.0778   18.7833 H         1 UNK         0.0825 
    125 H125      -46.5786  -26.9334   18.4149 H         1 UNK         0.0825 
    126 H126      -47.0179  -25.7349   16.2188 H         1 UNK         0.3029 
    127 H127      -48.6543  -23.5299   14.0888 H         1 UNK         0.0897 
    128 H128      -46.9293  -21.8058   14.4807 H         1 UNK         0.0792 
    129 H129      -46.5006  -22.5350   16.0302 H         1 UNK         0.0792 
    130 H130      -48.0811  -21.7970   15.8042 H         1 UNK         0.0792 
    131 H131      -45.9604  -23.9818   13.9921 H         1 UNK         0.3086 
    132 H132      -44.8561  -25.7222   13.1302 H         1 UNK         0.0583 
    133 H133      -44.5355  -27.8474   12.3558 H         1 UNK         0.1020 
    134 H134      -45.9119  -28.1632   13.3524 H         1 UNK         0.1020 
    135 H135      -47.3187  -30.2646   12.0745 H         1 UNK         0.0694 
    136 H136      -48.1735  -28.8128   12.5304 H         1 UNK         0.0694 
    137 H137      -46.4004  -25.9026   10.6553 H         1 UNK         0.2989 
    138 H138      -46.3577  -22.4410    9.9505 H         1 UNK         0.1055 
    139 H139      -44.4237  -23.4037    8.7041 H         1 UNK         0.0806 
    140 H140      -45.8607  -23.3986    7.6948 H         1 UNK         0.0806 
    141 H141      -45.3054  -24.9000    8.4340 H         1 UNK         0.0806 
    142 H142      -47.7802  -24.7315    8.8898 H         1 UNK         0.3061 
    143 H143      -49.5401  -25.7495   10.2796 H         1 UNK         0.0734 
    144 H144      -51.7146  -25.3258   11.3372 H         1 UNK         0.0832 
    145 H145      -50.4294  -24.7689   12.3865 H         1 UNK         0.0832 
    146 H146      -51.3654  -23.5995   11.4647 H         1 UNK         0.0832 
    147 H147      -51.4024  -23.8972    9.0138 H         1 UNK         0.3156 
    148 H148      -52.0277  -24.7549    6.8005 H         1 UNK         0.0589 
    149 H149      -49.7029  -22.9168    5.9350 H         1 UNK         0.0808 
    150 H150      -51.3462  -22.8384    5.3041 H         1 UNK         0.0808 
    151 H151      -51.0318  -22.4341    6.9802 H         1 UNK         0.0808 
    152 H152      -49.7038  -25.9706    5.6820 H         1 UNK         0.3098 
    153 H153      -51.3849  -27.1269    2.7689 H         1 UNK         0.0720 
    154 H154      -49.2688  -26.5633    1.6012 H         1 UNK         0.0791 
    155 H155      -48.8311  -25.4315    2.8813 H         1 UNK         0.0791 
    156 H156      -50.2248  -25.1130    1.8571 H         1 UNK         0.0791 
    157 H157      -48.7979  -27.6195    4.0377 H         1 UNK         0.3028 
@<TRIPOS>BOND
     1    1    2 1    
     2    1   82 1    
     3    1   83 1    
     4    1   84 1    
     5    2    3 2    
     6    2    4 am   BACKBONE|DICT|INTERRES
     7    4    5 1    
     8    4   85 1    
     9    5    6 1    
    10    5   80 1    
    11    5   86 1    
    12    6    7 1    
    13    6   87 1    
    14    6   88 1    
    15    7    8 1    
    16    8    9 1    
    17    8   89 1    
    18    8   90 1    
    19    9   10 ar   
    20    9   14 ar   
    21   10   11 ar   
    22   10   91 1    
    23   11   12 ar   
    24   11   58 1    
    25   12   13 ar   
    26   12   92 1    
    27   13   14 ar   
    28   13   15 1    
    29   14   93 1    
    30   15   16 1    
    31   15   94 1    
    32   15   95 1    
    33   16   17 1    
    34   17   18 1    
    35   17   96 1    
    36   17   97 1    
    37   18   19 1    
    38   18   22 1    
    39   18   98 1    
    40   19   20 am   BACKBONE|DICT|INTERRES
    41   19   21 2    
    42   20   99 1    
    43   20  100 1    
    44   22   23 am   BACKBONE|DICT|INTERRES
    45   22  101 1    
    46   23   24 2    
    47   23   25 1    
    48   25   26 1    
    49   25   27 1    
    50   25  102 1    
    51   26  103 1    
    52   26  104 1    
    53   26  105 1    
    54   27   28 am   BACKBONE|DICT|INTERRES
    55   27  106 1    
    56   28   29 2    
    57   28   30 1    
    58   30   31 1    
    59   30   32 1    
    60   30  107 1    
    61   31  108 1    
    62   31  109 1    
    63   31  110 1    
    64   32   33 am   BACKBONE|DICT|INTERRES
    65   32  111 1    
    66   33   34 2    
    67   33   35 1    
    68   35   36 1    
    69   35   37 1    
    70   35  112 1    
    71   36  113 1    
    72   36  114 1    
    73   36  115 1    
    74   37   38 am   BACKBONE|DICT|INTERRES
    75   37  116 1    
    76   38   39 2    
    77   38   40 1    
    78   40   41 1    
    79   40   42 1    
    80   40  117 1    
    81   41  118 1    
    82   41  119 1    
    83   41  120 1    
    84   42   43 am   BACKBONE|DICT|INTERRES
    85   42  121 1    
    86   43   44 2    
    87   43   45 1    
    88   45   46 1    
    89   45   47 1    
    90   45  122 1    
    91   46  123 1    
    92   46  124 1    
    93   46  125 1    
    94   47   48 am   BACKBONE|DICT|INTERRES
    95   47  126 1    
    96   48   49 2    
    97   48   50 1    
    98   50   51 1    
    99   50   52 1    
   100   50  127 1    
   101   51  128 1    
   102   51  129 1    
   103   51  130 1    
   104   52   53 am   BACKBONE|DICT|INTERRES
   105   52  131 1    
   106   53   54 2    
   107   53   55 1    
   108   55   56 1    
   109   55   59 1    
   110   55  132 1    
   111   56   57 1    
   112   56  133 1    
   113   56  134 1    
   114   57   58 1    
   115   58  135 1    
   116   58  136 1    
   117   59   60 am   BACKBONE|DICT|INTERRES
   118   59  137 1    
   119   60   61 2    
   120   60   62 1    
   121   62   63 1    
   122   62   64 1    
   123   62  138 1    
   124   63  139 1    
   125   63  140 1    
   126   63  141 1    
   127   64   65 am   BACKBONE|DICT|INTERRES
   128   64  142 1    
   129   65   66 2    
   130   65   67 1    
   131   67   68 1    
   132   67   69 1    
   133   67  143 1    
   134   68  144 1    
   135   68  145 1    
   136   68  146 1    
   137   69   70 am   BACKBONE|DICT|INTERRES
   138   69  147 1    
   139   70   71 2    
   140   70   72 1    
   141   72   73 1    
   142   72   74 1    
   143   72  148 1    
   144   73  149 1    
   145   73  150 1    
   146   73  151 1    
   147   74   75 am   BACKBONE|DICT|INTERRES
   148   74  152 1    
   149   75   76 2    
   150   75   77 1    
   151   77   78 1    
   152   77   79 1    
   153   77  153 1    
   154   78  154 1    
   155   78  155 1    
   156   78  156 1    
   157   79   80 am   BACKBONE|DICT|INTERRES
   158   79  157 1    
   159   80   81 2    
@<TRIPOS>SUBSTRUCTURE
     1 UNK         1 GROUP             0       ****    0 ROOT    
