@<TRIPOS>MOLECULE
3R207
157   159    1
SMALL
USER_CHARGES


@<TRIPOS>ATOM
      1 CA        -47.4389  -29.4917   11.0202 C.3       0 UNK        -0.1975 
      2 C         -47.3907  -28.7008    9.7224 C.2       0 UNK         0.4852 
      3 O         -46.5140  -27.8537    9.5588 O.2       0 UNK        -0.5216 
      4 N         -48.3062  -28.9887    8.7842 N.am      1 UNK        -0.4461 
      5 CA        -48.5227  -28.2708    7.5124 C.3       1 UNK         0.0864 
      6 C6        -49.0656  -26.8269    7.7123 C.3       14 UNK        -0.0898 
      7 S7        -50.4972  -26.7090    8.8269 S.3       14 UNK        -0.2598 
      8 C8        -51.9117  -26.8054    7.6842 C.3       14 UNK         0.0286 
      9 C9        -53.1169  -26.1459    8.3319 C.ar      14 UNK        -0.0844 
     10 C10       -53.4238  -24.8159    8.0406 C.ar      14 UNK        -0.0881 
     11 C11       -54.4094  -24.1402    8.7647 C.ar      14 UNK        -0.0643 
     12 C12       -55.1436  -24.8335    9.7335 C.ar      14 UNK        -0.0930 
     13 C13       -54.8833  -26.1828    9.9994 C.ar      14 UNK        -0.0827 
     14 C14       -53.8674  -26.8313    9.2896 C.ar      14 UNK        -0.1249 
     15 C15       -55.6461  -26.8973   11.1119 C.3       14 UNK         0.0141 
     16 S16       -56.3954  -28.4755   10.6001 S.3       14 UNK        -0.2313 
     17 C17       -55.0975  -29.6742   11.0663 C.3       14 UNK        -0.0915 
     18 CA        -55.4831  -30.5229   12.3083 C.3       13 UNK         0.0968 
     19 C         -54.5617  -31.7676   12.4816 C.2       13 UNK         0.5732 
     20 N         -54.1400  -32.1346   13.6863 N.am      13 UNK        -0.7310 
     21 O         -54.2344  -32.4358   11.5037 O.2       13 UNK        -0.5035 
     22 N         -55.5591  -29.6977   13.5258 N.am      13 UNK        -0.4233 
     23 C         -56.5672  -29.7232   14.4063 C.2       13 UNK         0.4989 
     24 O         -57.6029  -30.3713   14.2418 O.2       13 UNK        -0.4996 
     25 CA        -56.3795  -28.8965   15.6979 C.3       12 UNK         0.0216 
     26 CB        -57.4004  -29.2623   16.7961 C.3       12 UNK        -0.1964 
     27 N         -55.0147  -28.9439   16.2409 N.am      12 UNK        -0.4276 
     28 C         -54.2971  -30.0356   16.5569 C.2       12 UNK         0.5020 
     29 O         -54.7229  -31.1848   16.4341 O.2       12 UNK        -0.5489 
     30 CA        -52.8499  -29.8325   17.0479 C.3       11 UNK         0.0294 
     31 CB        -51.8728  -30.7159   16.2503 C.3       11 UNK        -0.2019 
     32 N         -52.4199  -28.4404   16.9185 N.am      11 UNK        -0.4493 
     33 C         -52.3088  -27.5576   17.9205 C.2       11 UNK         0.4932 
     34 O         -52.4881  -27.8380   19.1055 O.2       11 UNK        -0.5029 
     35 CA        -51.9605  -26.1049   17.5356 C.3       10 UNK         0.0280 
     36 CB        -50.4588  -25.8444   17.7316 C.3       10 UNK        -0.1976 
     37 N         -52.3330  -25.7608   16.1590 N.am      10 UNK        -0.4242 
     38 C         -53.5918  -25.7277   15.6937 C.2       10 UNK         0.5072 
     39 O         -54.5840  -25.9098   16.3990 O.2       10 UNK        -0.5224 
     40 CA        -53.7780  -25.5693   14.1756 C.3       9 UNK         0.0343 
     41 CB        -54.0204  -24.1005   13.8009 C.3       9 UNK        -0.2003 
     42 N         -52.6536  -26.1187   13.4045 N.am      9 UNK        -0.4272 
     43 C         -52.3373  -27.4252   13.3800 C.2       9 UNK         0.4988 
     44 O         -53.0418  -28.2863   13.9088 O.2       9 UNK        -0.5108 
     45 CA        -51.0216  -27.8709   12.7132 C.3       8 UNK         0.0248 
     46 CB        -51.2890  -28.8524   11.5635 C.3       8 UNK        -0.2001 
     47 N         -50.1764  -26.7677   12.2470 N.am      8 UNK        -0.4140 
     48 C         -49.4484  -25.9860   13.0580 C.2       8 UNK         0.5028 
     49 O         -49.4075  -26.1303   14.2806 O.2       8 UNK        -0.5428 
     50 CA        -48.6792  -24.8166   12.4145 C.3       7 UNK         0.0264 
     51 CB        -47.2612  -25.2535   12.0179 C.3       7 UNK        -0.1988 
     52 N         -49.3424  -24.2066   11.2551 N.am      7 UNK        -0.4454 
     53 C         -50.5766  -23.6746   11.2689 C.2       7 UNK         0.5027 
     54 O         -51.3035  -23.7024   12.2620 O.2       7 UNK        -0.5083 
     55 CA        -51.0881  -23.0248    9.9624 C.3       6 UNK         0.0844 
     56 C56       -52.3556  -22.1445   10.1673 C.3       14 UNK        -0.0967 
     57 S57       -53.1160  -21.6513    8.5791 S.3       14 UNK        -0.2604 
     58 C58       -54.6499  -22.6502    8.5396 C.3       14 UNK         0.0134 
     59 N         -50.0162  -22.3575    9.2163 N.am      6 UNK        -0.4116 
     60 C         -49.2598  -21.3353    9.6387 C.2       5 UNK         0.5034 
     61 O         -49.4591  -20.7285   10.6925 O.2       5 UNK        -0.5045 
     62 CA        -48.0670  -20.9272    8.7451 C.3       5 UNK         0.0224 
     63 CB        -46.8451  -20.5065    9.5896 C.3       5 UNK        -0.1978 
     64 N         -47.6521  -21.9200    7.7361 N.am      5 UNK        -0.4737 
     65 C         -47.2540  -23.1856    7.9426 C.2       4 UNK         0.5027 
     66 O         -47.3375  -23.7544    9.0333 O.2       4 UNK        -0.5211 
     67 CA        -46.7298  -23.9634    6.7151 C.3       4 UNK         0.0297 
     68 CB        -46.1735  -23.0611    5.5899 C.3       4 UNK        -0.1993 
     69 N         -45.7520  -24.9921    7.0892 N.am      4 UNK        -0.4486 
     70 C         -44.5623  -24.8091    7.6857 C.2       3 UNK         0.4961 
     71 O         -44.0719  -23.7019    7.9129 O.2       3 UNK        -0.5105 
     72 CA        -43.7751  -26.0634    8.1149 C.3       3 UNK         0.0299 
     73 CB        -43.6197  -26.0985    9.6455 C.3       3 UNK        -0.1972 
     74 N         -44.4071  -27.3110    7.6764 N.am      3 UNK        -0.4305 
     75 C         -44.1618  -27.9256    6.5084 C.2       2 UNK         0.5006 
     76 O         -43.3172  -27.5395    5.6995 O.2       2 UNK        -0.5106 
     77 CA        -45.0074  -29.1708    6.1632 C.3       2 UNK         0.0296 
     78 CB        -44.2565  -30.4540    6.5541 C.3       2 UNK        -0.2002 
     79 N         -46.3335  -29.1785    6.7894 N.am      2 UNK        -0.4032 
     80 C         -47.2854  -28.2570    6.5790 C.2       1 UNK         0.5000 
     81 O         -47.1800  -27.3765    5.7228 O.2       1 UNK        -0.5238 
     82 H82       -46.4484  -29.8761   11.2620 H         1 UNK         0.0889 
     83 H83       -48.1232  -30.3374   10.9583 H         1 UNK         0.0889 
     84 H84       -47.7626  -28.8466   11.8367 H         1 UNK         0.0889 
     85 H85       -48.9779  -29.7200    8.9714 H         1 UNK         0.3028 
     86 H86       -49.2859  -28.8360    6.9755 H         1 UNK         0.0864 
     87 H87       -48.2860  -26.1958    8.1416 H         1 UNK         0.0720 
     88 H88       -49.3307  -26.3708    6.7571 H         1 UNK         0.0720 
     89 H89       -52.1254  -27.8491    7.4497 H         1 UNK         0.0814 
     90 H90       -51.6735  -26.3122    6.7408 H         1 UNK         0.0814 
     91 H91       -52.8404  -24.2790    7.3050 H         1 UNK         0.1469 
     92 H92       -55.9028  -24.3128   10.3008 H         1 UNK         0.1381 
     93 H93       -53.6324  -27.8622    9.5010 H         1 UNK         0.1206 
     94 H94       -54.9685  -27.0797   11.9418 H         1 UNK         0.0813 
     95 H95       -56.4403  -26.2586   11.5010 H         1 UNK         0.0813 
     96 H96       -54.9362  -30.3080   10.1927 H         1 UNK         0.0638 
     97 H97       -54.1537  -29.1627   11.2476 H         1 UNK         0.0638 
     98 H98       -56.4657  -30.9493   12.1008 H         1 UNK         0.0568 
     99 H99       -54.4421  -31.6532   14.5262 H         1 UNK         0.3450 
    100 H100      -53.5539  -32.9495   13.7652 H         1 UNK         0.3450 
    101 H101      -54.7159  -29.1762   13.7525 H         1 UNK         0.2987 
    102 H102      -56.5573  -27.8577   15.4156 H         1 UNK         0.0766 
    103 H103      -58.4235  -29.1163   16.4472 H         1 UNK         0.0798 
    104 H104      -57.2705  -28.6391   17.6809 H         1 UNK         0.0798 
    105 H105      -57.3055  -30.3046   17.1030 H         1 UNK         0.0798 
    106 H106      -54.5823  -28.0379   16.3795 H         1 UNK         0.3198 
    107 H107      -52.8187  -30.1443   18.0939 H         1 UNK         0.0843 
    108 H108      -51.9047  -30.4923   15.1829 H         1 UNK         0.0831 
    109 H109      -52.1127  -31.7735   16.3680 H         1 UNK         0.0831 
    110 H110      -50.8464  -30.5801   16.5912 H         1 UNK         0.0831 
    111 H111      -52.2825  -28.1179   15.9690 H         1 UNK         0.3133 
    112 H112      -52.5141  -25.4449   18.2067 H         1 UNK         0.0566 
    113 H113      -50.2063  -24.8027   17.5327 H         1 UNK         0.0814 
    114 H114      -49.8517  -26.4677   17.0733 H         1 UNK         0.0814 
    115 H115      -50.1550  -26.0603   18.7569 H         1 UNK         0.0814 
    116 H116      -51.5728  -25.6184   15.5061 H         1 UNK         0.3091 
    117 H117      -54.6762  -26.1297   13.9153 H         1 UNK         0.0702 
    118 H118      -54.1725  -23.9853   12.7275 H         1 UNK         0.0785 
    119 H119      -53.1841  -23.4650   14.0939 H         1 UNK         0.0785 
    120 H120      -54.9108  -23.7143   14.2986 H         1 UNK         0.0785 
    121 H121      -52.0470  -25.4435   12.9484 H         1 UNK         0.2998 
    122 H122      -50.4629  -28.4169   13.4765 H         1 UNK         0.0697 
    123 H123      -51.8778  -28.3925   10.7739 H         1 UNK         0.0825 
    124 H124      -51.8368  -29.7281   11.9146 H         1 UNK         0.0825 
    125 H125      -50.3618  -29.2116   11.1212 H         1 UNK         0.0825 
    126 H126      -50.1798  -26.5718   11.2537 H         1 UNK         0.3029 
    127 H127      -48.5918  -24.0397   13.1768 H         1 UNK         0.0897 
    128 H128      -47.2792  -25.9548   11.1845 H         1 UNK         0.0792 
    129 H129      -46.7484  -25.7405   12.8485 H         1 UNK         0.0792 
    130 H130      -46.6535  -24.3998   11.7169 H         1 UNK         0.0792 
    131 H131      -48.7811  -24.1237   10.4111 H         1 UNK         0.3086 
    132 H132      -51.3704  -23.8728    9.3447 H         1 UNK         0.0583 
    133 H133      -53.1041  -22.6717   10.7611 H         1 UNK         0.1020 
    134 H134      -52.1107  -21.2453   10.7345 H         1 UNK         0.1020 
    135 H135      -55.3369  -22.2539    9.2888 H         1 UNK         0.0694 
    136 H136      -55.1352  -22.5134    7.5725 H         1 UNK         0.0694 
    137 H137      -49.7654  -22.7828    8.3365 H         1 UNK         0.2989 
    138 H138      -48.4040  -20.0496    8.1909 H         1 UNK         0.1055 
    139 H139      -46.4893  -21.3255   10.2161 H         1 UNK         0.0806 
    140 H140      -47.0863  -19.6722   10.2496 H         1 UNK         0.0806 
    141 H141      -46.0170  -20.1855    8.9577 H         1 UNK         0.0806 
    142 H142      -47.5858  -21.5658    6.7914 H         1 UNK         0.3061 
    143 H143      -47.5867  -24.5020    6.3091 H         1 UNK         0.0734 
    144 H144      -45.3931  -22.3907    5.9523 H         1 UNK         0.0832 
    145 H145      -45.7465  -23.6585    4.7841 H         1 UNK         0.0832 
    146 H146      -46.9570  -22.4485    5.1431 H         1 UNK         0.0832 
    147 H147      -46.0540  -25.9443    6.9277 H         1 UNK         0.3156 
    148 H148      -42.7770  -25.9886    7.6785 H         1 UNK         0.0589 
    149 H149      -44.5874  -26.0995   10.1490 H         1 UNK         0.0808 
    150 H150      -43.0700  -26.9818    9.9707 H         1 UNK         0.0808 
    151 H151      -43.0711  -25.2259   10.0023 H         1 UNK         0.0808 
    152 H152      -45.1335  -27.6729    8.2925 H         1 UNK         0.3098 
    153 H153      -45.1532  -29.1752    5.0809 H         1 UNK         0.0720 
    154 H154      -44.8002  -31.3448    6.2387 H         1 UNK         0.0791 
    155 H155      -44.1000  -30.5180    7.6318 H         1 UNK         0.0791 
    156 H156      -43.2748  -30.4913    6.0796 H         1 UNK         0.0791 
    157 H157      -46.4910  -29.8616    7.5160 H         1 UNK         0.3028 
@<TRIPOS>BOND
     1    1    2 1    
     2    1   82 1    
     3    1   83 1    
     4    1   84 1    
     5    2    3 2    
     6    2    4 am   BACKBONE|DICT|INTERRES
     7    4    5 1    
     8    4   85 1    
     9    5    6 1    
    10    5   80 1    
    11    5   86 1    
    12    6    7 1    
    13    6   87 1    
    14    6   88 1    
    15    7    8 1    
    16    8    9 1    
    17    8   89 1    
    18    8   90 1    
    19    9   10 ar   
    20    9   14 ar   
    21   10   11 ar   
    22   10   91 1    
    23   11   12 ar   
    24   11   58 1    
    25   12   13 ar   
    26   12   92 1    
    27   13   14 ar   
    28   13   15 1    
    29   14   93 1    
    30   15   16 1    
    31   15   94 1    
    32   15   95 1    
    33   16   17 1    
    34   17   18 1    
    35   17   96 1    
    36   17   97 1    
    37   18   19 1    
    38   18   22 1    
    39   18   98 1    
    40   19   20 am   BACKBONE|DICT|INTERRES
    41   19   21 2    
    42   20   99 1    
    43   20  100 1    
    44   22   23 am   BACKBONE|DICT|INTERRES
    45   22  101 1    
    46   23   24 2    
    47   23   25 1    
    48   25   26 1    
    49   25   27 1    
    50   25  102 1    
    51   26  103 1    
    52   26  104 1    
    53   26  105 1    
    54   27   28 am   BACKBONE|DICT|INTERRES
    55   27  106 1    
    56   28   29 2    
    57   28   30 1    
    58   30   31 1    
    59   30   32 1    
    60   30  107 1    
    61   31  108 1    
    62   31  109 1    
    63   31  110 1    
    64   32   33 am   BACKBONE|DICT|INTERRES
    65   32  111 1    
    66   33   34 2    
    67   33   35 1    
    68   35   36 1    
    69   35   37 1    
    70   35  112 1    
    71   36  113 1    
    72   36  114 1    
    73   36  115 1    
    74   37   38 am   BACKBONE|DICT|INTERRES
    75   37  116 1    
    76   38   39 2    
    77   38   40 1    
    78   40   41 1    
    79   40   42 1    
    80   40  117 1    
    81   41  118 1    
    82   41  119 1    
    83   41  120 1    
    84   42   43 am   BACKBONE|DICT|INTERRES
    85   42  121 1    
    86   43   44 2    
    87   43   45 1    
    88   45   46 1    
    89   45   47 1    
    90   45  122 1    
    91   46  123 1    
    92   46  124 1    
    93   46  125 1    
    94   47   48 am   BACKBONE|DICT|INTERRES
    95   47  126 1    
    96   48   49 2    
    97   48   50 1    
    98   50   51 1    
    99   50   52 1    
   100   50  127 1    
   101   51  128 1    
   102   51  129 1    
   103   51  130 1    
   104   52   53 am   BACKBONE|DICT|INTERRES
   105   52  131 1    
   106   53   54 2    
   107   53   55 1    
   108   55   56 1    
   109   55   59 1    
   110   55  132 1    
   111   56   57 1    
   112   56  133 1    
   113   56  134 1    
   114   57   58 1    
   115   58  135 1    
   116   58  136 1    
   117   59   60 am   BACKBONE|DICT|INTERRES
   118   59  137 1    
   119   60   61 2    
   120   60   62 1    
   121   62   63 1    
   122   62   64 1    
   123   62  138 1    
   124   63  139 1    
   125   63  140 1    
   126   63  141 1    
   127   64   65 am   BACKBONE|DICT|INTERRES
   128   64  142 1    
   129   65   66 2    
   130   65   67 1    
   131   67   68 1    
   132   67   69 1    
   133   67  143 1    
   134   68  144 1    
   135   68  145 1    
   136   68  146 1    
   137   69   70 am   BACKBONE|DICT|INTERRES
   138   69  147 1    
   139   70   71 2    
   140   70   72 1    
   141   72   73 1    
   142   72   74 1    
   143   72  148 1    
   144   73  149 1    
   145   73  150 1    
   146   73  151 1    
   147   74   75 am   BACKBONE|DICT|INTERRES
   148   74  152 1    
   149   75   76 2    
   150   75   77 1    
   151   77   78 1    
   152   77   79 1    
   153   77  153 1    
   154   78  154 1    
   155   78  155 1    
   156   78  156 1    
   157   79   80 am   BACKBONE|DICT|INTERRES
   158   79  157 1    
   159   80   81 2    
@<TRIPOS>SUBSTRUCTURE
     1 UNK         1 GROUP             0       ****    0 ROOT    
