@<TRIPOS>MOLECULE
3R207
157   159    1
SMALL
USER_CHARGES


@<TRIPOS>ATOM
      1 CA        -47.1916  -29.6824    3.1199 C.3       0 UNK        -0.1975 
      2 C         -48.1422  -28.4989    3.0147 C.2       0 UNK         0.4852 
      3 O         -48.4269  -28.0380    1.9082 O.2       0 UNK        -0.5216 
      4 N         -48.6294  -28.0026    4.1553 N.am      1 UNK        -0.4461 
      5 CA        -49.5538  -26.8767    4.2667 C.3       1 UNK         0.0864 
      6 C6        -51.0323  -27.2536    3.9574 C.3       14 UNK        -0.0898 
      7 S7        -51.6397  -28.7487    4.8177 S.3       14 UNK        -0.2598 
      8 C8        -52.4713  -28.0385    6.2733 C.3       14 UNK         0.0286 
      9 C9        -52.6637  -29.1003    7.3436 C.ar      14 UNK        -0.0844 
     10 C10       -51.5753  -29.5053    8.1217 C.ar      14 UNK        -0.0881 
     11 C11       -51.7257  -30.5010    9.0915 C.ar      14 UNK        -0.0643 
     12 C12       -52.9804  -31.0880    9.2835 C.ar      14 UNK        -0.0930 
     13 C13       -54.0823  -30.6736    8.5268 C.ar      14 UNK        -0.0827 
     14 C14       -53.9164  -29.6835    7.5531 C.ar      14 UNK        -0.1249 
     15 C15       -55.4518  -31.2960    8.7608 C.3       14 UNK         0.0141 
     16 S16       -56.1306  -30.8688   10.3967 S.3       14 UNK        -0.2313 
     17 C17       -56.4145  -29.0678   10.2503 C.3       14 UNK        -0.0915 
     18 CA        -55.2264  -28.2001   10.7653 C.3       13 UNK         0.0968 
     19 C         -55.4800  -26.6704   10.5989 C.2       13 UNK         0.5732 
     20 N         -54.8896  -25.8074   11.4150 N.am      13 UNK        -0.7310 
     21 O         -56.2011  -26.2503    9.6968 O.2       13 UNK        -0.5035 
     22 N         -54.7427  -28.6359   12.0873 N.am      13 UNK        -0.4233 
     23 C         -55.3751  -28.5115   13.2606 C.2       13 UNK         0.4989 
     24 O         -56.4084  -27.8660   13.4359 O.2       13 UNK        -0.4996 
     25 CA        -54.7580  -29.2766   14.4375 C.3       12 UNK         0.0216 
     26 CB        -54.1014  -30.6131   14.0158 C.3       12 UNK        -0.1964 
     27 N         -53.8000  -28.4294   15.1468 N.am      12 UNK        -0.4276 
     28 C         -53.3815  -28.6586   16.3994 C.2       12 UNK         0.5020 
     29 O         -53.7982  -29.5860   17.0959 O.2       12 UNK        -0.5489 
     30 CA        -52.3063  -27.7296   16.9910 C.3       11 UNK         0.0294 
     31 CB        -50.9258  -28.4046   16.9378 C.3       11 UNK        -0.2019 
     32 N         -52.2272  -26.4094   16.3628 N.am      11 UNK        -0.4493 
     33 C         -53.1464  -25.4455   16.5238 C.2       11 UNK         0.4932 
     34 O         -54.1979  -25.6101   17.1451 O.2       11 UNK        -0.5029 
     35 CA        -52.8290  -24.0655   15.9093 C.3       10 UNK         0.0280 
     36 CB        -53.6725  -22.9287   16.5227 C.3       10 UNK        -0.1976 
     37 N         -51.4030  -23.7184   15.9465 N.am      10 UNK        -0.4242 
     38 C         -50.5884  -23.6691   17.0153 C.2       10 UNK         0.5072 
     39 O         -50.9636  -23.8562   18.1735 O.2       10 UNK        -0.5224 
     40 CA        -49.0971  -23.3798   16.7528 C.3       9 UNK         0.0343 
     41 CB        -48.1970  -24.4282   17.4329 C.3       9 UNK        -0.2003 
     42 N         -48.8020  -23.3612   15.3174 N.am      9 UNK        -0.4272 
     43 C         -48.4099  -22.2827   14.6263 C.2       9 UNK         0.4988 
     44 O         -48.1346  -21.1980   15.1402 O.2       9 UNK        -0.5108 
     45 CA        -48.3372  -22.4211   13.0951 C.3       8 UNK         0.0248 
     46 CB        -46.9219  -22.8267   12.6528 C.3       8 UNK        -0.2001 
     47 N         -49.3202  -23.3527   12.5277 N.am      8 UNK        -0.4140 
     48 C         -50.6504  -23.1733   12.5691 C.2       8 UNK         0.5028 
     49 O         -51.1902  -22.2475   13.1732 O.2       8 UNK        -0.5428 
     50 CA        -51.5408  -24.2055   11.8656 C.3       7 UNK         0.0264 
     51 CB        -51.6652  -23.8855   10.3697 C.3       7 UNK        -0.1988 
     52 N         -51.0224  -25.5617   12.0336 N.am      7 UNK        -0.4454 
     53 C         -51.6545  -26.5336   12.7047 C.2       7 UNK         0.5027 
     54 O         -52.7602  -26.4120   13.2349 O.2       7 UNK        -0.5083 
     55 CA        -50.9262  -27.8848   12.8251 C.3       6 UNK         0.0844 
     56 C56       -51.1035  -28.6691   11.5056 C.3       14 UNK        -0.0967 
     57 S57       -50.6881  -30.4317   11.6800 S.3       14 UNK        -0.2604 
     58 C58       -50.5311  -30.9328    9.9338 C.3       14 UNK         0.0134 
     59 N         -49.5112  -27.7557   13.1781 N.am      6 UNK        -0.4116 
     60 C         -48.9610  -26.9354   14.0847 C.2       5 UNK         0.5034 
     61 O         -49.5991  -26.2271   14.8654 O.2       5 UNK        -0.5045 
     62 CA        -47.4276  -26.8207   14.0506 C.3       5 UNK         0.0224 
     63 CB        -46.8038  -27.7663   15.0881 C.3       5 UNK        -0.1978 
     64 N         -46.8215  -27.0671   12.7302 N.am      5 UNK        -0.4737 
     65 C         -47.1550  -26.4576   11.5822 C.2       4 UNK         0.5027 
     66 O         -48.0779  -25.6428   11.4756 O.2       4 UNK        -0.5211 
     67 CA        -46.3698  -26.8693   10.3357 C.3       4 UNK         0.0297 
     68 CB        -47.0022  -28.1161    9.6888 C.3       4 UNK        -0.1993 
     69 N         -46.4031  -25.7524    9.4013 N.am      4 UNK        -0.4486 
     70 C         -45.5719  -25.5329    8.3796 C.2       3 UNK         0.4961 
     71 O         -44.6287  -26.2744    8.0982 O.2       3 UNK        -0.5105 
     72 CA        -45.8619  -24.2812    7.5217 C.3       3 UNK         0.0299 
     73 CB        -44.8813  -24.1278    6.3437 C.3       3 UNK        -0.1972 
     74 N         -47.2323  -24.2844    6.9994 N.am      3 UNK        -0.4305 
     75 C         -48.3344  -24.0008    7.7074 C.2       2 UNK         0.5006 
     76 O         -48.2981  -23.6129    8.8756 O.2       2 UNK        -0.5106 
     77 CA        -49.7059  -24.1984    7.0318 C.3       2 UNK         0.0296 
     78 CB        -50.3898  -22.8423    6.7916 C.3       2 UNK        -0.2002 
     79 N         -49.6864  -24.9567    5.7755 N.am      2 UNK        -0.4032 
     80 C         -49.3889  -26.2592    5.6638 C.2       1 UNK         0.5000 
     81 O         -49.0171  -26.9654    6.6058 O.2       1 UNK        -0.5238 
     82 H82       -47.0286  -29.9828    4.1548 H         1 UNK         0.0889 
     83 H83       -46.2257  -29.4285    2.6840 H         1 UNK         0.0889 
     84 H84       -47.5965  -30.5373    2.5789 H         1 UNK         0.0889 
     85 H85       -48.3574  -28.3871    5.0521 H         1 UNK         0.3028 
     86 H86       -49.2380  -26.1166    3.5483 H         1 UNK         0.0864 
     87 H87       -51.7036  -26.4165    4.1586 H         1 UNK         0.0720 
     88 H88       -51.1280  -27.4446    2.8876 H         1 UNK         0.0720 
     89 H89       -53.4280  -27.6101    5.9705 H         1 UNK         0.0814 
     90 H90       -51.8838  -27.2191    6.6875 H         1 UNK         0.0814 
     91 H91       -50.6075  -29.0491    7.9587 H         1 UNK         0.1469 
     92 H92       -53.1037  -31.8536   10.0375 H         1 UNK         0.1381 
     93 H93       -54.7617  -29.3671    6.9572 H         1 UNK         0.1206 
     94 H94       -56.1591  -30.9945    7.9868 H         1 UNK         0.0813 
     95 H95       -55.3655  -32.3810    8.6887 H         1 UNK         0.0813 
     96 H96       -57.3195  -28.8294   10.8115 H         1 UNK         0.0638 
     97 H97       -56.6361  -28.8360    9.2072 H         1 UNK         0.0638 
     98 H98       -54.3888  -28.3869   10.0952 H         1 UNK         0.0568 
     99 H99       -54.2665  -26.1233   12.1507 H         1 UNK         0.3450 
    100 H100      -55.0675  -24.8246   11.2927 H         1 UNK         0.3450 
    101 H101      -53.9173  -29.2132   12.0675 H         1 UNK         0.2987 
    102 H102      -55.5827  -29.5081   15.1153 H         1 UNK         0.0766 
    103 H103      -53.8764  -31.2324   14.8841 H         1 UNK         0.0798 
    104 H104      -53.1674  -30.4628   13.4747 H         1 UNK         0.0798 
    105 H105      -54.7667  -31.1970   13.3778 H         1 UNK         0.0798 
    106 H106      -53.4613  -27.6105   14.6476 H         1 UNK         0.3198 
    107 H107      -52.5596  -27.5765   18.0425 H         1 UNK         0.0843 
    108 H108      -50.6336  -28.6509   15.9177 H         1 UNK         0.0831 
    109 H109      -50.9281  -29.3362   17.5051 H         1 UNK         0.0831 
    110 H110      -50.1519  -27.7669   17.3659 H         1 UNK         0.0831 
    111 H111      -51.3823  -26.2010   15.8392 H         1 UNK         0.3133 
    112 H112      -53.0949  -24.1388   14.8540 H         1 UNK         0.0566 
    113 H113      -53.4502  -21.9719   16.0501 H         1 UNK         0.0814 
    114 H114      -54.7389  -23.1139   16.3881 H         1 UNK         0.0814 
    115 H115      -53.4917  -22.8252   17.5932 H         1 UNK         0.0814 
    116 H116      -51.0040  -23.4669   15.0521 H         1 UNK         0.3091 
    117 H117      -48.8842  -22.4076   17.2015 H         1 UNK         0.0702 
    118 H118      -47.1430  -24.2367   17.2312 H         1 UNK         0.0785 
    119 H119      -48.4248  -25.4396   17.0964 H         1 UNK         0.0785 
    120 H120      -48.3263  -24.4109   18.5157 H         1 UNK         0.0785 
    121 H121      -49.0022  -24.2228   14.8226 H         1 UNK         0.2998 
    122 H122      -48.5488  -21.4367   12.6722 H         1 UNK         0.0697 
    123 H123      -46.6293  -23.7927   13.0632 H         1 UNK         0.0825 
    124 H124      -46.1851  -22.0954   12.9876 H         1 UNK         0.0825 
    125 H125      -46.8479  -22.8876   11.5665 H         1 UNK         0.0825 
    126 H126      -48.9356  -24.1472   12.0197 H         1 UNK         0.3029 
    127 H127      -52.5369  -24.1205   12.3054 H         1 UNK         0.0897 
    128 H128      -52.3194  -24.5960    9.8638 H         1 UNK         0.0792 
    129 H129      -50.6940  -23.9116    9.8797 H         1 UNK         0.0792 
    130 H130      -52.0825  -22.8897   10.2152 H         1 UNK         0.0792 
    131 H131      -50.0884  -25.7421   11.6777 H         1 UNK         0.3086 
    132 H132      -51.4064  -28.4402   13.6314 H         1 UNK         0.0583 
    133 H133      -50.4895  -28.2323   10.7147 H         1 UNK         0.1020 
    134 H134      -52.1313  -28.6141   11.1456 H         1 UNK         0.1020 
    135 H135      -49.6052  -30.5183    9.5315 H         1 UNK         0.0694 
    136 H136      -50.4274  -32.0176    9.8843 H         1 UNK         0.0694 
    137 H137      -48.8766  -28.2985   12.6121 H         1 UNK         0.2989 
    138 H138      -47.1804  -25.7966   14.3353 H         1 UNK         0.1055 
    139 H139      -47.2258  -27.5931   16.0795 H         1 UNK         0.0806 
    140 H140      -45.7272  -27.6147   15.1679 H         1 UNK         0.0806 
    141 H141      -46.9790  -28.8136   14.8385 H         1 UNK         0.0806 
    142 H142      -46.0620  -27.7337   12.7102 H         1 UNK         0.3061 
    143 H143      -45.3348  -27.0744   10.6167 H         1 UNK         0.0734 
    144 H144      -46.4421  -28.4343    8.8094 H         1 UNK         0.0832 
    145 H145      -47.0190  -28.9578   10.3821 H         1 UNK         0.0832 
    146 H146      -48.0300  -27.9276    9.3744 H         1 UNK         0.0832 
    147 H147      -47.1484  -25.0798    9.5756 H         1 UNK         0.3156 
    148 H148      -45.7372  -23.4116    8.1706 H         1 UNK         0.0589 
    149 H149      -44.9459  -24.9683    5.6515 H         1 UNK         0.0808 
    150 H150      -45.0750  -23.2137    5.7820 H         1 UNK         0.0808 
    151 H151      -43.8508  -24.0748    6.6975 H         1 UNK         0.0808 
    152 H152      -47.3518  -24.6246    6.0574 H         1 UNK         0.3098 
    153 H153      -50.3188  -24.7664    7.7340 H         1 UNK         0.0720 
    154 H154      -51.4070  -22.9698    6.4207 H         1 UNK         0.0791 
    155 H155      -49.8404  -22.2352    6.0710 H         1 UNK         0.0791 
    156 H156      -50.4567  -22.2676    7.7168 H         1 UNK         0.0791 
    157 H157      -49.9734  -24.4517    4.9486 H         1 UNK         0.3028 
@<TRIPOS>BOND
     1    1    2 1    
     2    1   82 1    
     3    1   83 1    
     4    1   84 1    
     5    2    3 2    
     6    2    4 am   BACKBONE|DICT|INTERRES
     7    4    5 1    
     8    4   85 1    
     9    5    6 1    
    10    5   80 1    
    11    5   86 1    
    12    6    7 1    
    13    6   87 1    
    14    6   88 1    
    15    7    8 1    
    16    8    9 1    
    17    8   89 1    
    18    8   90 1    
    19    9   10 ar   
    20    9   14 ar   
    21   10   11 ar   
    22   10   91 1    
    23   11   12 ar   
    24   11   58 1    
    25   12   13 ar   
    26   12   92 1    
    27   13   14 ar   
    28   13   15 1    
    29   14   93 1    
    30   15   16 1    
    31   15   94 1    
    32   15   95 1    
    33   16   17 1    
    34   17   18 1    
    35   17   96 1    
    36   17   97 1    
    37   18   19 1    
    38   18   22 1    
    39   18   98 1    
    40   19   20 am   BACKBONE|DICT|INTERRES
    41   19   21 2    
    42   20   99 1    
    43   20  100 1    
    44   22   23 am   BACKBONE|DICT|INTERRES
    45   22  101 1    
    46   23   24 2    
    47   23   25 1    
    48   25   26 1    
    49   25   27 1    
    50   25  102 1    
    51   26  103 1    
    52   26  104 1    
    53   26  105 1    
    54   27   28 am   BACKBONE|DICT|INTERRES
    55   27  106 1    
    56   28   29 2    
    57   28   30 1    
    58   30   31 1    
    59   30   32 1    
    60   30  107 1    
    61   31  108 1    
    62   31  109 1    
    63   31  110 1    
    64   32   33 am   BACKBONE|DICT|INTERRES
    65   32  111 1    
    66   33   34 2    
    67   33   35 1    
    68   35   36 1    
    69   35   37 1    
    70   35  112 1    
    71   36  113 1    
    72   36  114 1    
    73   36  115 1    
    74   37   38 am   BACKBONE|DICT|INTERRES
    75   37  116 1    
    76   38   39 2    
    77   38   40 1    
    78   40   41 1    
    79   40   42 1    
    80   40  117 1    
    81   41  118 1    
    82   41  119 1    
    83   41  120 1    
    84   42   43 am   BACKBONE|DICT|INTERRES
    85   42  121 1    
    86   43   44 2    
    87   43   45 1    
    88   45   46 1    
    89   45   47 1    
    90   45  122 1    
    91   46  123 1    
    92   46  124 1    
    93   46  125 1    
    94   47   48 am   BACKBONE|DICT|INTERRES
    95   47  126 1    
    96   48   49 2    
    97   48   50 1    
    98   50   51 1    
    99   50   52 1    
   100   50  127 1    
   101   51  128 1    
   102   51  129 1    
   103   51  130 1    
   104   52   53 am   BACKBONE|DICT|INTERRES
   105   52  131 1    
   106   53   54 2    
   107   53   55 1    
   108   55   56 1    
   109   55   59 1    
   110   55  132 1    
   111   56   57 1    
   112   56  133 1    
   113   56  134 1    
   114   57   58 1    
   115   58  135 1    
   116   58  136 1    
   117   59   60 am   BACKBONE|DICT|INTERRES
   118   59  137 1    
   119   60   61 2    
   120   60   62 1    
   121   62   63 1    
   122   62   64 1    
   123   62  138 1    
   124   63  139 1    
   125   63  140 1    
   126   63  141 1    
   127   64   65 am   BACKBONE|DICT|INTERRES
   128   64  142 1    
   129   65   66 2    
   130   65   67 1    
   131   67   68 1    
   132   67   69 1    
   133   67  143 1    
   134   68  144 1    
   135   68  145 1    
   136   68  146 1    
   137   69   70 am   BACKBONE|DICT|INTERRES
   138   69  147 1    
   139   70   71 2    
   140   70   72 1    
   141   72   73 1    
   142   72   74 1    
   143   72  148 1    
   144   73  149 1    
   145   73  150 1    
   146   73  151 1    
   147   74   75 am   BACKBONE|DICT|INTERRES
   148   74  152 1    
   149   75   76 2    
   150   75   77 1    
   151   77   78 1    
   152   77   79 1    
   153   77  153 1    
   154   78  154 1    
   155   78  155 1    
   156   78  156 1    
   157   79   80 am   BACKBONE|DICT|INTERRES
   158   79  157 1    
   159   80   81 2    
@<TRIPOS>SUBSTRUCTURE
     1 UNK         1 GROUP             0       ****    0 ROOT    
