@<TRIPOS>MOLECULE
3R207
157   159    1
SMALL
USER_CHARGES


@<TRIPOS>ATOM
      1 CA        -47.8668  -31.8751   10.0633 C.3       0 UNK        -0.1975 
      2 C         -47.8336  -31.2249    8.6879 C.2       0 UNK         0.4852 
      3 O         -47.0171  -31.6055    7.8487 O.2       0 UNK        -0.5216 
      4 N         -48.7118  -30.2401    8.4554 N.am      1 UNK        -0.4461 
      5 CA        -48.8512  -29.5101    7.1863 C.3       1 UNK         0.0864 
      6 C6        -50.2373  -28.8256    7.0667 C.3       14 UNK        -0.0898 
      7 S7        -51.6006  -30.0421    7.0780 S.3       14 UNK        -0.2598 
      8 C8        -52.9560  -29.1075    6.2971 C.3       14 UNK         0.0286 
      9 C9        -53.6407  -28.1708    7.2828 C.ar      14 UNK        -0.0844 
     10 C10       -53.1127  -26.8993    7.5251 C.ar      14 UNK        -0.0881 
     11 C11       -53.7206  -26.0344    8.4455 C.ar      14 UNK        -0.0643 
     12 C12       -54.8891  -26.4498    9.0920 C.ar      14 UNK        -0.0930 
     13 C13       -55.4392  -27.7116    8.8480 C.ar      14 UNK        -0.0827 
     14 C14       -54.8032  -28.5727    7.9489 C.ar      14 UNK        -0.1249 
     15 C15       -56.7441  -28.1198    9.5227 C.3       14 UNK         0.0141 
     16 S16       -56.6116  -28.1939   11.3387 S.3       14 UNK        -0.2313 
     17 C17       -55.7316  -29.7721   11.5873 C.3       14 UNK        -0.0915 
     18 CA        -55.9878  -30.3932   12.9884 C.3       13 UNK         0.0968 
     19 C         -55.3059  -31.7860   13.1320 C.2       13 UNK         0.5732 
     20 N         -54.4948  -32.0426   14.1534 N.am      13 UNK        -0.7310 
     21 O         -55.5302  -32.6649   12.3035 O.2       13 UNK        -0.5035 
     22 N         -55.6457  -29.4583   14.0703 N.am      13 UNK        -0.4233 
     23 C         -56.2406  -29.4229   15.2676 C.2       13 UNK         0.4989 
     24 O         -57.1909  -30.1445   15.5776 O.2       13 UNK        -0.4996 
     25 CA        -55.6799  -28.4105   16.2866 C.3       12 UNK         0.0216 
     26 CB        -56.1815  -28.6646   17.7242 C.3       12 UNK        -0.1964 
     27 N         -54.2156  -28.2989   16.2693 N.am      12 UNK        -0.4276 
     28 C         -53.3162  -29.2741   16.4788 C.2       12 UNK         0.5020 
     29 O         -53.6287  -30.4513   16.6657 O.2       12 UNK        -0.5489 
     30 CA        -51.8160  -28.9019   16.4595 C.3       11 UNK         0.0294 
     31 CB        -51.0351  -29.8335   15.5167 C.3       11 UNK        -0.2019 
     32 N         -51.5547  -27.5107   16.0773 N.am      11 UNK        -0.4493 
     33 C         -51.6754  -26.4469   16.8841 C.2       11 UNK         0.4932 
     34 O         -51.9241  -26.5238   18.0867 O.2       11 UNK        -0.5029 
     35 CA        -51.5722  -25.0611   16.2197 C.3       10 UNK         0.0280 
     36 CB        -50.1214  -24.5536   16.2122 C.3       10 UNK        -0.1976 
     37 N         -52.1145  -25.0572   14.8562 N.am      10 UNK        -0.4242 
     38 C         -53.4110  -25.2402   14.5603 C.2       10 UNK         0.5072 
     39 O         -54.2947  -25.3530   15.4097 O.2       10 UNK        -0.5224 
     40 CA        -53.7766  -25.3917   13.0758 C.3       9 UNK         0.0343 
     41 CB        -54.0006  -24.0171   12.4264 C.3       9 UNK        -0.2003 
     42 N         -52.7669  -26.1611   12.3406 N.am      9 UNK        -0.4272 
     43 C         -52.5913  -27.4832   12.5049 C.2       9 UNK         0.4988 
     44 O         -53.3025  -28.1705   13.2349 O.2       9 UNK        -0.5108 
     45 CA        -51.3993  -28.1587   11.8023 C.3       8 UNK         0.0248 
     46 CB        -51.8238  -28.8075   10.4828 C.3       8 UNK        -0.2001 
     47 N         -50.2716  -27.2589   11.5678 N.am      8 UNK        -0.4140 
     48 C         -49.5362  -26.7177   12.5467 C.2       8 UNK         0.5028 
     49 O         -49.7204  -26.9520   13.7413 O.2       8 UNK        -0.5428 
     50 CA        -48.4401  -25.7237   12.1304 C.3       7 UNK         0.0264 
     51 CB        -47.0937  -26.4494   12.0039 C.3       7 UNK        -0.1988 
     52 N         -48.7047  -24.9815   10.8906 N.am      7 UNK        -0.4454 
     53 C         -49.7724  -24.2047   10.6581 C.2       7 UNK         0.5027 
     54 O         -50.7599  -24.1686   11.3950 O.2       7 UNK        -0.5083 
     55 CA        -49.6701  -23.2734    9.4294 C.3       6 UNK         0.0844 
     56 C56       -51.0385  -22.8040    8.8653 C.3       14 UNK        -0.0967 
     57 S57       -51.7776  -24.0626    7.7704 S.3       14 UNK        -0.2604 
     58 C58       -53.1380  -24.6719    8.8213 C.3       14 UNK         0.0134 
     59 N         -48.7637  -22.1635    9.7367 N.am      6 UNK        -0.4116 
     60 C         -48.9154  -21.2303   10.6904 C.2       5 UNK         0.5034 
     61 O         -49.9475  -21.0736   11.3439 O.2       5 UNK        -0.5045 
     62 CA        -47.7054  -20.3080   10.9553 C.3       5 UNK         0.0224 
     63 CB        -47.6211  -19.8511   12.4282 C.3       5 UNK        -0.1978 
     64 N         -46.4244  -20.8761   10.5069 N.am      5 UNK        -0.4737 
     65 C         -45.8112  -21.9842   10.9489 C.2       4 UNK         0.5027 
     66 O         -46.2282  -22.6870   11.8700 O.2       4 UNK        -0.5211 
     67 CA        -44.5489  -22.4042   10.1709 C.3       4 UNK         0.0297 
     68 CB        -43.6050  -23.2681   11.0272 C.3       4 UNK        -0.1993 
     69 N         -44.8851  -23.1440    8.9508 N.am      4 UNK        -0.4486 
     70 C         -45.5237  -22.6590    7.8764 C.2       3 UNK         0.4961 
     71 O         -45.8741  -21.4832    7.7684 O.2       3 UNK        -0.5105 
     72 CA        -45.8342  -23.6275    6.7188 C.3       3 UNK         0.0299 
     73 CB        -45.1036  -23.1876    5.4384 C.3       3 UNK        -0.1972 
     74 N         -45.5187  -25.0356    6.9796 N.am      3 UNK        -0.4305 
     75 C         -46.1883  -25.8440    7.8101 C.2       2 UNK         0.5006 
     76 O         -47.0946  -25.4718    8.5597 O.2       2 UNK        -0.5106 
     77 CA        -45.7276  -27.3085    7.8341 C.3       2 UNK         0.0296 
     78 CB        -44.7530  -27.5565    8.9968 C.3       2 UNK        -0.2002 
     79 N         -46.8642  -28.2249    7.9350 N.am      2 UNK        -0.4032 
     80 C         -47.7069  -28.5012    6.9270 C.2       1 UNK         0.5000 
     81 O         -47.5983  -28.0041    5.8040 O.2       1 UNK        -0.5238 
     82 H82       -46.9011  -31.7624   10.5553 H         1 UNK         0.0889 
     83 H83       -48.0787  -32.9398    9.9687 H         1 UNK         0.0889 
     84 H84       -48.6285  -31.4342   10.7063 H         1 UNK         0.0889 
     85 H85       -49.3786  -29.9959    9.1718 H         1 UNK         0.3028 
     86 H86       -48.7807  -30.2437    6.3798 H         1 UNK         0.0864 
     87 H87       -50.3006  -28.2574    6.1366 H         1 UNK         0.0720 
     88 H88       -50.3874  -28.1088    7.8753 H         1 UNK         0.0720 
     89 H89       -52.5825  -28.5494    5.4373 H         1 UNK         0.0814 
     90 H90       -53.6817  -29.8184    5.8990 H         1 UNK         0.0814 
     91 H91       -52.2095  -26.6076    7.0105 H         1 UNK         0.1469 
     92 H92       -55.3733  -25.7912    9.8000 H         1 UNK         0.1381 
     93 H93       -55.2184  -29.5528    7.7575 H         1 UNK         0.1206 
     94 H94       -57.1021  -29.0777    9.1428 H         1 UNK         0.0813 
     95 H95       -57.5104  -27.3884    9.2632 H         1 UNK         0.0813 
     96 H96       -56.0420  -30.4659   10.8044 H         1 UNK         0.0638 
     97 H97       -54.6692  -29.5962   11.4354 H         1 UNK         0.0638 
     98 H98       -57.0589  -30.5939   13.0481 H         1 UNK         0.0568 
     99 H99       -54.0735  -32.9543   14.2249 H         1 UNK         0.3450 
    100 H100      -54.3202  -31.3518   14.8729 H         1 UNK         0.3450 
    101 H101      -54.8350  -28.8686   13.8897 H         1 UNK         0.2987 
    102 H102      -56.0598  -27.4365   15.9752 H         1 UNK         0.0766 
    103 H103      -55.7977  -27.9148   18.4158 H         1 UNK         0.0798 
    104 H104      -57.2702  -28.6213   17.7740 H         1 UNK         0.0798 
    105 H105      -55.8773  -29.6459   18.0902 H         1 UNK         0.0798 
    106 H106      -53.8657  -27.3687   16.0725 H         1 UNK         0.3198 
    107 H107      -51.4367  -29.0549   17.4719 H         1 UNK         0.0843 
    108 H108      -49.9894  -29.5373   15.4314 H         1 UNK         0.0831 
    109 H109      -51.4680  -29.8438   14.5174 H         1 UNK         0.0831 
    110 H110      -51.0526  -30.8606   15.8832 H         1 UNK         0.0831 
    111 H111      -51.2655  -27.3501   15.1179 H         1 UNK         0.3133 
    112 H112      -52.1671  -24.3649   16.8147 H         1 UNK         0.0566 
    113 H113      -49.4584  -25.2139   15.6538 H         1 UNK         0.0814 
    114 H114      -49.7298  -24.4885   17.2282 H         1 UNK         0.0814 
    115 H115      -50.0506  -23.5579   15.7744 H         1 UNK         0.0814 
    116 H116      -51.4494  -24.9987   14.0975 H         1 UNK         0.3091 
    117 H117      -54.7212  -25.9383   13.0250 H         1 UNK         0.0702 
    118 H118      -53.0814  -23.4340   12.3715 H         1 UNK         0.0785 
    119 H119      -54.7208  -23.4310   12.9991 H         1 UNK         0.0785 
    120 H120      -54.4041  -24.1146   11.4204 H         1 UNK         0.0785 
    121 H121      -52.1005  -25.6318   11.7877 H         1 UNK         0.2998 
    122 H122      -51.0446  -28.9561   12.4565 H         1 UNK         0.0697 
    123 H123      -52.6021  -29.5524   10.6385 H         1 UNK         0.0825 
    124 H124      -50.9912  -29.3221   10.0089 H         1 UNK         0.0825 
    125 H125      -52.2117  -28.0701    9.7847 H         1 UNK         0.0825 
    126 H126      -50.0741  -26.9908   10.6154 H         1 UNK         0.3029 
    127 H127      -48.3558  -24.9847   12.9301 H         1 UNK         0.0897 
    128 H128      -46.2881  -25.7541   11.7659 H         1 UNK         0.0792 
    129 H129      -46.8280  -26.9463   12.9381 H         1 UNK         0.0792 
    130 H130      -47.1282  -27.2122   11.2262 H         1 UNK         0.0792 
    131 H131      -47.9718  -25.0074   10.1848 H         1 UNK         0.3086 
    132 H132      -49.1642  -23.8346    8.6425 H         1 UNK         0.0583 
    133 H133      -51.7305  -22.5085    9.6567 H         1 UNK         0.1020 
    134 H134      -50.8975  -21.9093    8.2571 H         1 UNK         0.1020 
    135 H135      -52.7727  -24.7502    9.8429 H         1 UNK         0.0694 
    136 H136      -53.9309  -23.9226    8.8264 H         1 UNK         0.0694 
    137 H137      -47.8737  -22.1831    9.2604 H         1 UNK         0.2989 
    138 H138      -47.8738  -19.4189   10.3448 H         1 UNK         0.1055 
    139 H139      -46.7621  -19.2010   12.5945 H         1 UNK         0.0806 
    140 H140      -47.5397  -20.6976   13.1113 H         1 UNK         0.0806 
    141 H141      -48.5102  -19.2885   12.7160 H         1 UNK         0.0806 
    142 H142      -46.0335  -20.4499    9.6728 H         1 UNK         0.3061 
    143 H143      -44.0088  -21.4985    9.8871 H         1 UNK         0.0734 
    144 H144      -43.3383  -22.7532   11.9510 H         1 UNK         0.0832 
    145 H145      -44.0633  -24.2179   11.3057 H         1 UNK         0.0832 
    146 H146      -42.6761  -23.4855   10.4995 H         1 UNK         0.0832 
    147 H147      -44.6619  -24.1282    8.9503 H         1 UNK         0.3156 
    148 H148      -46.9086  -23.5591    6.5339 H         1 UNK         0.0589 
    149 H149      -44.0200  -23.2388    5.5536 H         1 UNK         0.0808 
    150 H150      -45.3821  -23.8098    4.5874 H         1 UNK         0.0808 
    151 H151      -45.3540  -22.1585    5.1761 H         1 UNK         0.0808 
    152 H152      -44.7692  -25.4299    6.4282 H         1 UNK         0.3098 
    153 H153      -45.2024  -27.5286    6.9018 H         1 UNK         0.0720 
    154 H154      -45.2008  -27.3315    9.9634 H         1 UNK         0.0791 
    155 H155      -44.4162  -28.5933    9.0171 H         1 UNK         0.0791 
    156 H156      -43.8636  -26.9324    8.9003 H         1 UNK         0.0791 
    157 H157      -47.0285  -28.6581    8.8303 H         1 UNK         0.3028 
@<TRIPOS>BOND
     1    1    2 1    
     2    1   82 1    
     3    1   83 1    
     4    1   84 1    
     5    2    3 2    
     6    2    4 am   BACKBONE|DICT|INTERRES
     7    4    5 1    
     8    4   85 1    
     9    5    6 1    
    10    5   80 1    
    11    5   86 1    
    12    6    7 1    
    13    6   87 1    
    14    6   88 1    
    15    7    8 1    
    16    8    9 1    
    17    8   89 1    
    18    8   90 1    
    19    9   10 ar   
    20    9   14 ar   
    21   10   11 ar   
    22   10   91 1    
    23   11   12 ar   
    24   11   58 1    
    25   12   13 ar   
    26   12   92 1    
    27   13   14 ar   
    28   13   15 1    
    29   14   93 1    
    30   15   16 1    
    31   15   94 1    
    32   15   95 1    
    33   16   17 1    
    34   17   18 1    
    35   17   96 1    
    36   17   97 1    
    37   18   19 1    
    38   18   22 1    
    39   18   98 1    
    40   19   20 am   BACKBONE|DICT|INTERRES
    41   19   21 2    
    42   20   99 1    
    43   20  100 1    
    44   22   23 am   BACKBONE|DICT|INTERRES
    45   22  101 1    
    46   23   24 2    
    47   23   25 1    
    48   25   26 1    
    49   25   27 1    
    50   25  102 1    
    51   26  103 1    
    52   26  104 1    
    53   26  105 1    
    54   27   28 am   BACKBONE|DICT|INTERRES
    55   27  106 1    
    56   28   29 2    
    57   28   30 1    
    58   30   31 1    
    59   30   32 1    
    60   30  107 1    
    61   31  108 1    
    62   31  109 1    
    63   31  110 1    
    64   32   33 am   BACKBONE|DICT|INTERRES
    65   32  111 1    
    66   33   34 2    
    67   33   35 1    
    68   35   36 1    
    69   35   37 1    
    70   35  112 1    
    71   36  113 1    
    72   36  114 1    
    73   36  115 1    
    74   37   38 am   BACKBONE|DICT|INTERRES
    75   37  116 1    
    76   38   39 2    
    77   38   40 1    
    78   40   41 1    
    79   40   42 1    
    80   40  117 1    
    81   41  118 1    
    82   41  119 1    
    83   41  120 1    
    84   42   43 am   BACKBONE|DICT|INTERRES
    85   42  121 1    
    86   43   44 2    
    87   43   45 1    
    88   45   46 1    
    89   45   47 1    
    90   45  122 1    
    91   46  123 1    
    92   46  124 1    
    93   46  125 1    
    94   47   48 am   BACKBONE|DICT|INTERRES
    95   47  126 1    
    96   48   49 2    
    97   48   50 1    
    98   50   51 1    
    99   50   52 1    
   100   50  127 1    
   101   51  128 1    
   102   51  129 1    
   103   51  130 1    
   104   52   53 am   BACKBONE|DICT|INTERRES
   105   52  131 1    
   106   53   54 2    
   107   53   55 1    
   108   55   56 1    
   109   55   59 1    
   110   55  132 1    
   111   56   57 1    
   112   56  133 1    
   113   56  134 1    
   114   57   58 1    
   115   58  135 1    
   116   58  136 1    
   117   59   60 am   BACKBONE|DICT|INTERRES
   118   59  137 1    
   119   60   61 2    
   120   60   62 1    
   121   62   63 1    
   122   62   64 1    
   123   62  138 1    
   124   63  139 1    
   125   63  140 1    
   126   63  141 1    
   127   64   65 am   BACKBONE|DICT|INTERRES
   128   64  142 1    
   129   65   66 2    
   130   65   67 1    
   131   67   68 1    
   132   67   69 1    
   133   67  143 1    
   134   68  144 1    
   135   68  145 1    
   136   68  146 1    
   137   69   70 am   BACKBONE|DICT|INTERRES
   138   69  147 1    
   139   70   71 2    
   140   70   72 1    
   141   72   73 1    
   142   72   74 1    
   143   72  148 1    
   144   73  149 1    
   145   73  150 1    
   146   73  151 1    
   147   74   75 am   BACKBONE|DICT|INTERRES
   148   74  152 1    
   149   75   76 2    
   150   75   77 1    
   151   77   78 1    
   152   77   79 1    
   153   77  153 1    
   154   78  154 1    
   155   78  155 1    
   156   78  156 1    
   157   79   80 am   BACKBONE|DICT|INTERRES
   158   79  157 1    
   159   80   81 2    
@<TRIPOS>SUBSTRUCTURE
     1 UNK         1 GROUP             0       ****    0 ROOT    
