@<TRIPOS>MOLECULE
3R207
157   159    1
SMALL
USER_CHARGES


@<TRIPOS>ATOM
      1 CA        -47.9477  -30.5946    2.5960 C.3       0 UNK        -0.1975 
      2 C         -48.6370  -29.6469    3.5669 C.2       0 UNK         0.4852 
      3 O         -49.5956  -28.9755    3.1846 O.2       0 UNK        -0.5216 
      4 N         -48.1585  -29.5984    4.8175 N.am      1 UNK        -0.4461 
      5 CA        -48.6652  -28.7409    5.8945 C.3       1 UNK         0.0864 
      6 C6        -48.0167  -29.1012    7.2553 C.3       14 UNK        -0.0898 
      7 S7        -48.7059  -30.6272    7.9734 S.3       14 UNK        -0.2598 
      8 C8        -49.2890  -30.0375    9.5989 C.3       14 UNK         0.0286 
      9 C9        -50.7042  -29.4720    9.5573 C.ar      14 UNK        -0.0844 
     10 C10       -50.9899  -28.2937    8.8598 C.ar      14 UNK        -0.0881 
     11 C11       -52.2724  -27.7412    8.8826 C.ar      14 UNK        -0.0643 
     12 C12       -53.2859  -28.3869    9.5971 C.ar      14 UNK        -0.0930 
     13 C13       -53.0176  -29.5691   10.2938 C.ar      14 UNK        -0.0827 
     14 C14       -51.7273  -30.1065   10.2680 C.ar      14 UNK        -0.1249 
     15 C15       -54.1144  -30.2632   11.0855 C.3       14 UNK         0.0141 
     16 S16       -54.3798  -29.4466   12.6889 S.3       14 UNK        -0.2313 
     17 C17       -55.3085  -30.7332   13.5875 C.3       14 UNK        -0.0915 
     18 CA        -56.8351  -30.6698   13.3319 C.3       13 UNK         0.0968 
     19 C         -57.5582  -31.8535   14.0306 C.2       13 UNK         0.5732 
     20 N         -57.6666  -32.9942   13.3629 N.am      13 UNK        -0.7310 
     21 O         -57.9837  -31.7619   15.1813 O.2       13 UNK        -0.5035 
     22 N         -57.3888  -29.3657   13.7147 N.am      13 UNK        -0.4233 
     23 C         -58.6118  -28.9247   13.4093 C.2       13 UNK         0.4989 
     24 O         -59.4108  -29.5552   12.7152 O.2       13 UNK        -0.4996 
     25 CA        -59.0215  -27.5360   13.9339 C.3       12 UNK         0.0216 
     26 CB        -59.7218  -27.6501   15.3028 C.3       12 UNK        -0.1964 
     27 N         -57.9495  -26.5257   13.9583 N.am      12 UNK        -0.4276 
     28 C         -56.8552  -26.4698   14.7309 C.2       12 UNK         0.5020 
     29 O         -56.5335  -27.3404   15.5447 O.2       12 UNK        -0.5489 
     30 CA        -55.9841  -25.2180   14.5687 C.3       11 UNK         0.0294 
     31 CB        -56.7349  -23.9585   15.0523 C.3       11 UNK        -0.2019 
     32 N         -54.7517  -25.3883   15.3342 N.am      11 UNK        -0.4493 
     33 C         -53.6440  -24.6517   15.2005 C.2       11 UNK         0.4932 
     34 O         -53.5184  -23.7573   14.3632 O.2       11 UNK        -0.5029 
     35 CA        -52.4960  -24.9065   16.1908 C.3       10 UNK         0.0280 
     36 CB        -52.9613  -25.3536   17.5960 C.3       10 UNK        -0.1976 
     37 N         -51.4782  -25.7984   15.6330 N.am      10 UNK        -0.4242 
     38 C         -51.5749  -27.1127   15.3785 C.2       10 UNK         0.5072 
     39 O         -52.5805  -27.7808   15.6217 O.2       10 UNK        -0.5224 
     40 CA        -50.3447  -27.8263   14.7734 C.3       9 UNK         0.0343 
     41 CB        -50.6837  -28.4520   13.4088 C.3       9 UNK        -0.2003 
     42 N         -49.1669  -26.9663   14.6232 N.am      9 UNK        -0.4272 
     43 C         -48.3608  -26.5680   15.6173 C.2       9 UNK         0.4988 
     44 O         -48.4732  -26.9484   16.7829 O.2       9 UNK        -0.5108 
     45 CA        -47.2714  -25.5364   15.2630 C.3       8 UNK         0.0248 
     46 CB        -45.9815  -26.2388   14.8112 C.3       8 UNK        -0.2001 
     47 N         -47.6964  -24.5670   14.2447 N.am      8 UNK        -0.4140 
     48 C         -48.7057  -23.6966   14.4058 C.2       8 UNK         0.5028 
     49 O         -49.3473  -23.5841   15.4504 O.2       8 UNK        -0.5428 
     50 CA        -49.1088  -22.8478   13.1880 C.3       7 UNK         0.0264 
     51 CB        -48.1710  -21.6419   13.0201 C.3       7 UNK        -0.1988 
     52 N         -49.1558  -23.6250   11.9467 N.am      7 UNK        -0.4454 
     53 C         -49.9929  -24.6513   11.7277 C.2       7 UNK         0.5027 
     54 O         -50.8546  -25.0046   12.5310 O.2       7 UNK        -0.5083 
     55 CA        -49.7920  -25.4658   10.4323 C.3       6 UNK         0.0844 
     56 C56       -50.4721  -24.8185    9.2000 C.3       14 UNK        -0.0967 
     57 S57       -52.2910  -24.9864    9.2092 S.3       14 UNK        -0.2604 
     58 C58       -52.5574  -26.4414    8.1440 C.3       14 UNK         0.0134 
     59 N         -48.3772  -25.7468   10.1802 N.am      6 UNK        -0.4116 
     60 C         -47.5816  -26.4740   10.9754 C.2       5 UNK         0.5034 
     61 O         -47.9752  -27.0746   11.9726 O.2       5 UNK        -0.5045 
     62 CA        -46.0830  -26.4890   10.6349 C.3       5 UNK         0.0224 
     63 CB        -45.7394  -27.5903    9.6210 C.3       5 UNK        -0.1978 
     64 N         -45.6232  -25.1951   10.1288 N.am      5 UNK        -0.4737 
     65 C         -45.4723  -24.1027   10.8879 C.2       4 UNK         0.5027 
     66 O         -45.6616  -24.0868   12.1042 O.2       4 UNK        -0.5211 
     67 CA        -45.0825  -22.8064   10.1569 C.3       4 UNK         0.0297 
     68 CB        -43.5666  -22.7601    9.9091 C.3       4 UNK        -0.1993 
     69 N         -45.7966  -22.6298    8.8872 N.am      4 UNK        -0.4486 
     70 C         -47.1174  -22.4227    8.7937 C.2       3 UNK         0.4961 
     71 O         -47.8670  -22.3511    9.7660 O.2       3 UNK        -0.5105 
     72 CA        -47.7196  -22.3144    7.3815 C.3       3 UNK         0.0299 
     73 CB        -47.5489  -20.8877    6.8359 C.3       3 UNK        -0.1972 
     74 N         -47.2149  -23.2813    6.3969 N.am      3 UNK        -0.4305 
     75 C         -47.1428  -24.6094    6.5634 C.2       2 UNK         0.5006 
     76 O         -47.3383  -25.1791    7.6388 O.2       2 UNK        -0.5106 
     77 CA        -46.7636  -25.4378    5.3208 C.3       2 UNK         0.0296 
     78 CB        -45.2408  -25.4097    5.1096 C.3       2 UNK        -0.2002 
     79 N         -47.1989  -26.8353    5.4248 N.am      2 UNK        -0.4032 
     80 C         -48.4679  -27.2436    5.5847 C.2       1 UNK         0.5000 
     81 O         -49.4489  -26.4996    5.5221 O.2       1 UNK        -0.5238 
     82 H82       -47.5512  -30.0385    1.7470 H         1 UNK         0.0889 
     83 H83       -48.6594  -31.3292    2.2201 H         1 UNK         0.0889 
     84 H84       -47.1229  -31.1313    3.0645 H         1 UNK         0.0889 
     85 H85       -47.3871  -30.2002    5.0687 H         1 UNK         0.3028 
     86 H86       -49.7428  -28.9053    5.9693 H         1 UNK         0.0864 
     87 H87       -48.1341  -28.2899    7.9739 H         1 UNK         0.0720 
     88 H88       -46.9387  -29.2340    7.1480 H         1 UNK         0.0720 
     89 H89       -49.2426  -30.8779   10.2931 H         1 UNK         0.0814 
     90 H90       -48.6070  -29.2888   10.0032 H         1 UNK         0.0814 
     91 H91       -50.2134  -27.7773    8.3190 H         1 UNK         0.1469 
     92 H92       -54.2795  -27.9609    9.6261 H         1 UNK         0.1381 
     93 H93       -51.5164  -31.0122   10.8201 H         1 UNK         0.1206 
     94 H94       -53.8534  -31.3108   11.2424 H         1 UNK         0.0813 
     95 H95       -55.0459  -30.2583   10.5177 H         1 UNK         0.0813 
     96 H96       -55.0997  -30.6090   14.6519 H         1 UNK         0.0638 
     97 H97       -54.9081  -31.7115   13.3156 H         1 UNK         0.0638 
     98 H98       -56.9982  -30.7779   12.2578 H         1 UNK         0.0568 
     99 H99       -57.3124  -33.0863   12.4237 H         1 UNK         0.3450 
    100 H100      -58.1194  -33.7784   13.8058 H         1 UNK         0.3450 
    101 H101      -56.8265  -28.7972   14.3411 H         1 UNK         0.2987 
    102 H102      -59.7596  -27.1523   13.2275 H         1 UNK         0.0766 
    103 H103      -60.0833  -26.6809   15.6461 H         1 UNK         0.0798 
    104 H104      -59.0582  -28.0520   16.0691 H         1 UNK         0.0798 
    105 H105      -60.5842  -28.3154   15.2434 H         1 UNK         0.0798 
    106 H106      -58.0816  -25.7692   13.3004 H         1 UNK         0.3198 
    107 H107      -55.7296  -25.1162   13.5114 H         1 UNK         0.0843 
    108 H108      -56.9992  -24.0318   16.1081 H         1 UNK         0.0831 
    109 H109      -57.6595  -23.8036   14.4953 H         1 UNK         0.0831 
    110 H110      -56.1355  -23.0576   14.9218 H         1 UNK         0.0831 
    111 H111      -54.7634  -26.1754   15.9738 H         1 UNK         0.3133 
    112 H112      -51.9960  -23.9456   16.3217 H         1 UNK         0.0566 
    113 H113      -52.1203  -25.4003   18.2879 H         1 UNK         0.0814 
    114 H114      -53.6784  -24.6435   18.0098 H         1 UNK         0.0814 
    115 H115      -53.4398  -26.3327   17.5945 H         1 UNK         0.0814 
    116 H116      -50.6235  -25.3297   15.3551 H         1 UNK         0.3091 
    117 H117      -50.0826  -28.6377   15.4552 H         1 UNK         0.0702 
    118 H118      -51.4857  -29.1843   13.5041 H         1 UNK         0.0785 
    119 H119      -51.0152  -27.7029   12.6893 H         1 UNK         0.0785 
    120 H120      -49.8256  -28.9698   12.9801 H         1 UNK         0.0785 
    121 H121      -48.9505  -26.6662   13.6777 H         1 UNK         0.2998 
    122 H122      -47.0468  -24.9733   16.1712 H         1 UNK         0.0697 
    123 H123      -46.1424  -26.8471   13.9218 H         1 UNK         0.0825 
    124 H124      -45.6062  -26.9009   15.5926 H         1 UNK         0.0825 
    125 H125      -45.1929  -25.5197   14.5884 H         1 UNK         0.0825 
    126 H126      -47.1730  -24.5528   13.3742 H         1 UNK         0.3029 
    127 H127      -50.1164  -22.4689   13.3737 H         1 UNK         0.0897 
    128 H128      -48.1433  -21.0400   13.9294 H         1 UNK         0.0792 
    129 H129      -48.5041  -20.9918   12.2109 H         1 UNK         0.0792 
    130 H130      -47.1486  -21.9494   12.8005 H         1 UNK         0.0792 
    131 H131      -48.5206  -23.3381   11.2045 H         1 UNK         0.3086 
    132 H132      -50.2614  -26.4333   10.6113 H         1 UNK         0.0583 
    133 H133      -50.2200  -23.7589    9.1311 H         1 UNK         0.1020 
    134 H134      -50.0912  -25.2649    8.2797 H         1 UNK         0.1020 
    135 H135      -53.5931  -26.4359    7.8011 H         1 UNK         0.0694 
    136 H136      -51.9428  -26.3659    7.2453 H         1 UNK         0.0694 
    137 H137      -47.9688  -25.3404    9.3409 H         1 UNK         0.2989 
    138 H138      -45.5450  -26.7071   11.5599 H         1 UNK         0.1055 
    139 H139      -46.1629  -28.5504    9.9190 H         1 UNK         0.0806 
    140 H140      -44.6606  -27.7251    9.5420 H         1 UNK         0.0806 
    141 H141      -46.1133  -27.3534    8.6262 H         1 UNK         0.0806 
    142 H142      -45.5308  -25.1038    9.1263 H         1 UNK         0.3061 
    143 H143      -45.3454  -21.9703   10.8088 H         1 UNK         0.0734 
    144 H144      -43.2646  -21.8083    9.4717 H         1 UNK         0.0832 
    145 H145      -43.0164  -22.8733   10.8445 H         1 UNK         0.0832 
    146 H146      -43.2389  -23.5572    9.2406 H         1 UNK         0.0832 
    147 H147      -45.2553  -22.6842    8.0366 H         1 UNK         0.3156 
    148 H148      -48.7899  -22.5052    7.4794 H         1 UNK         0.0589 
    149 H149      -46.5012  -20.6473    6.6508 H         1 UNK         0.0808 
    150 H150      -48.0954  -20.7501    5.9027 H         1 UNK         0.0808 
    151 H151      -47.9322  -20.1502    7.5429 H         1 UNK         0.0808 
    152 H152      -47.0054  -22.9085    5.4818 H         1 UNK         0.3098 
    153 H153      -47.2553  -24.9996    4.4500 H         1 UNK         0.0720 
    154 H154      -44.7082  -25.8449    5.9566 H         1 UNK         0.0791 
    155 H155      -44.8769  -24.3887    4.9863 H         1 UNK         0.0791 
    156 H156      -44.9540  -25.9611    4.2138 H         1 UNK         0.0791 
    157 H157      -46.4664  -27.5258    5.4889 H         1 UNK         0.3028 
@<TRIPOS>BOND
     1    1    2 1    
     2    1   82 1    
     3    1   83 1    
     4    1   84 1    
     5    2    3 2    
     6    2    4 am   BACKBONE|DICT|INTERRES
     7    4    5 1    
     8    4   85 1    
     9    5    6 1    
    10    5   80 1    
    11    5   86 1    
    12    6    7 1    
    13    6   87 1    
    14    6   88 1    
    15    7    8 1    
    16    8    9 1    
    17    8   89 1    
    18    8   90 1    
    19    9   10 ar   
    20    9   14 ar   
    21   10   11 ar   
    22   10   91 1    
    23   11   12 ar   
    24   11   58 1    
    25   12   13 ar   
    26   12   92 1    
    27   13   14 ar   
    28   13   15 1    
    29   14   93 1    
    30   15   16 1    
    31   15   94 1    
    32   15   95 1    
    33   16   17 1    
    34   17   18 1    
    35   17   96 1    
    36   17   97 1    
    37   18   19 1    
    38   18   22 1    
    39   18   98 1    
    40   19   20 am   BACKBONE|DICT|INTERRES
    41   19   21 2    
    42   20   99 1    
    43   20  100 1    
    44   22   23 am   BACKBONE|DICT|INTERRES
    45   22  101 1    
    46   23   24 2    
    47   23   25 1    
    48   25   26 1    
    49   25   27 1    
    50   25  102 1    
    51   26  103 1    
    52   26  104 1    
    53   26  105 1    
    54   27   28 am   BACKBONE|DICT|INTERRES
    55   27  106 1    
    56   28   29 2    
    57   28   30 1    
    58   30   31 1    
    59   30   32 1    
    60   30  107 1    
    61   31  108 1    
    62   31  109 1    
    63   31  110 1    
    64   32   33 am   BACKBONE|DICT|INTERRES
    65   32  111 1    
    66   33   34 2    
    67   33   35 1    
    68   35   36 1    
    69   35   37 1    
    70   35  112 1    
    71   36  113 1    
    72   36  114 1    
    73   36  115 1    
    74   37   38 am   BACKBONE|DICT|INTERRES
    75   37  116 1    
    76   38   39 2    
    77   38   40 1    
    78   40   41 1    
    79   40   42 1    
    80   40  117 1    
    81   41  118 1    
    82   41  119 1    
    83   41  120 1    
    84   42   43 am   BACKBONE|DICT|INTERRES
    85   42  121 1    
    86   43   44 2    
    87   43   45 1    
    88   45   46 1    
    89   45   47 1    
    90   45  122 1    
    91   46  123 1    
    92   46  124 1    
    93   46  125 1    
    94   47   48 am   BACKBONE|DICT|INTERRES
    95   47  126 1    
    96   48   49 2    
    97   48   50 1    
    98   50   51 1    
    99   50   52 1    
   100   50  127 1    
   101   51  128 1    
   102   51  129 1    
   103   51  130 1    
   104   52   53 am   BACKBONE|DICT|INTERRES
   105   52  131 1    
   106   53   54 2    
   107   53   55 1    
   108   55   56 1    
   109   55   59 1    
   110   55  132 1    
   111   56   57 1    
   112   56  133 1    
   113   56  134 1    
   114   57   58 1    
   115   58  135 1    
   116   58  136 1    
   117   59   60 am   BACKBONE|DICT|INTERRES
   118   59  137 1    
   119   60   61 2    
   120   60   62 1    
   121   62   63 1    
   122   62   64 1    
   123   62  138 1    
   124   63  139 1    
   125   63  140 1    
   126   63  141 1    
   127   64   65 am   BACKBONE|DICT|INTERRES
   128   64  142 1    
   129   65   66 2    
   130   65   67 1    
   131   67   68 1    
   132   67   69 1    
   133   67  143 1    
   134   68  144 1    
   135   68  145 1    
   136   68  146 1    
   137   69   70 am   BACKBONE|DICT|INTERRES
   138   69  147 1    
   139   70   71 2    
   140   70   72 1    
   141   72   73 1    
   142   72   74 1    
   143   72  148 1    
   144   73  149 1    
   145   73  150 1    
   146   73  151 1    
   147   74   75 am   BACKBONE|DICT|INTERRES
   148   74  152 1    
   149   75   76 2    
   150   75   77 1    
   151   77   78 1    
   152   77   79 1    
   153   77  153 1    
   154   78  154 1    
   155   78  155 1    
   156   78  156 1    
   157   79   80 am   BACKBONE|DICT|INTERRES
   158   79  157 1    
   159   80   81 2    
@<TRIPOS>SUBSTRUCTURE
     1 UNK         1 GROUP             0       ****    0 ROOT    
