@<TRIPOS>MOLECULE
3R207
157   159    1
SMALL
USER_CHARGES


@<TRIPOS>ATOM
      1 CA        -51.5636  -29.6988    1.6775 C.3       0 UNK        -0.1975 
      2 C         -52.1458  -28.9232    2.8499 C.2       0 UNK         0.4852 
      3 O         -53.0878  -28.1519    2.6646 O.2       0 UNK        -0.5216 
      4 N         -51.5947  -29.1277    4.0535 N.am      1 UNK        -0.4461 
      5 CA        -51.9809  -28.4451    5.2946 C.3       1 UNK         0.0864 
      6 C6        -51.3691  -29.1244    6.5498 C.3       14 UNK        -0.0898 
      7 S7        -49.5664  -29.4314    6.4278 S.3       14 UNK        -0.2598 
      8 C8        -49.4073  -31.0665    7.2107 C.3       14 UNK         0.0286 
      9 C9        -49.3748  -30.9541    8.7273 C.ar      14 UNK        -0.0844 
     10 C10       -48.1531  -30.9158    9.4034 C.ar      14 UNK        -0.0881 
     11 C11       -48.1135  -30.8283   10.7980 C.ar      14 UNK        -0.0643 
     12 C12       -49.3109  -30.7433   11.5184 C.ar      14 UNK        -0.0930 
     13 C13       -50.5415  -30.7783   10.8511 C.ar      14 UNK        -0.0827 
     14 C14       -50.5633  -30.9016    9.4580 C.ar      14 UNK        -0.1249 
     15 C15       -51.8535  -30.7097   11.6227 C.3       14 UNK         0.0141 
     16 S16       -52.8691  -29.3027   11.0762 S.3       14 UNK        -0.2313 
     17 C17       -54.4286  -29.6056   11.9673 C.3       14 UNK        -0.0915 
     18 CA        -55.5110  -28.5664   11.5785 C.3       13 UNK         0.0968 
     19 C         -56.8840  -28.9063   12.2203 C.2       13 UNK         0.5732 
     20 N         -57.5988  -29.8753   11.6635 N.am      13 UNK        -0.7310 
     21 O         -57.2966  -28.3329   13.2259 O.2       13 UNK        -0.5035 
     22 N         -55.0556  -27.1994   11.8625 N.am      13 UNK        -0.4233 
     23 C         -55.5909  -26.0862   11.3522 C.2       13 UNK         0.4989 
     24 O         -56.5579  -26.0715   10.5874 O.2       13 UNK        -0.4996 
     25 CA        -54.8844  -24.7762   11.7417 C.3       12 UNK         0.0216 
     26 CB        -55.6070  -23.5072   11.2384 C.3       12 UNK        -0.1964 
     27 N         -54.5983  -24.7073   13.1794 N.am      12 UNK        -0.4276 
     28 C         -55.4827  -24.6049   14.1828 C.2       12 UNK         0.5020 
     29 O         -56.7037  -24.5419   14.0258 O.2       12 UNK        -0.5489 
     30 CA        -54.8884  -24.5231   15.6008 C.3       11 UNK         0.0294 
     31 CB        -55.9508  -24.6088   16.7189 C.3       11 UNK        -0.2019 
     32 N         -53.7978  -25.4781   15.8261 N.am      11 UNK        -0.4493 
     33 C         -53.8740  -26.8176   15.8836 C.2       11 UNK         0.4932 
     34 O         -54.9181  -27.4473   15.7177 O.2       11 UNK        -0.5029 
     35 CA        -52.5811  -27.6070   16.1879 C.3       10 UNK         0.0280 
     36 CB        -52.3498  -28.7178   15.1495 C.3       10 UNK        -0.1976 
     37 N         -51.3792  -26.7733   16.2673 N.am      10 UNK        -0.4242 
     38 C         -51.0306  -26.0047   17.3084 C.2       10 UNK         0.5072 
     39 O         -51.6471  -25.9727   18.3738 O.2       10 UNK        -0.5224 
     40 CA        -49.8222  -25.0713   17.1080 C.3       9 UNK         0.0343 
     41 CB        -48.5185  -25.7841   17.4991 C.3       9 UNK        -0.2003 
     42 N         -49.7131  -24.5463   15.7406 N.am      9 UNK        -0.4272 
     43 C         -50.6339  -23.7709   15.1456 C.2       9 UNK         0.4988 
     44 O         -51.6577  -23.3777   15.7045 O.2       9 UNK        -0.5108 
     45 CA        -50.4150  -23.4265   13.6628 C.3       8 UNK         0.0248 
     46 CB        -49.3559  -22.3253   13.4979 C.3       8 UNK        -0.2001 
     47 N         -50.0426  -24.5980   12.8692 N.am      8 UNK        -0.4140 
     48 C         -50.8168  -25.6768   12.6842 C.2       8 UNK         0.5028 
     49 O         -51.9753  -25.7676   13.0927 O.2       8 UNK        -0.5428 
     50 CA        -50.1691  -26.8759   11.9757 C.3       7 UNK         0.0264 
     51 CB        -50.2236  -26.7237   10.4475 C.3       7 UNK        -0.1988 
     52 N         -48.7886  -27.0901   12.4124 N.am      7 UNK        -0.4454 
     53 C         -48.4486  -27.5218   13.6354 C.2       7 UNK         0.5027 
     54 O         -49.2688  -27.8095   14.5060 O.2       7 UNK        -0.5083 
     55 CA        -46.9452  -27.6127   13.9650 C.3       6 UNK         0.0844 
     56 C56       -46.3468  -28.9866   13.5829 C.3       14 UNK        -0.0967 
     57 S57       -46.0797  -29.2155   11.7871 S.3       14 UNK        -0.2604 
     58 C58       -46.7713  -30.8761   11.5125 C.3       14 UNK         0.0134 
     59 N         -46.1787  -26.4957   13.4104 N.am      6 UNK        -0.4116 
     60 C         -46.2880  -25.2225   13.8102 C.2       5 UNK         0.5034 
     61 O         -47.0179  -24.8505   14.7280 O.2       5 UNK        -0.5045 
     62 CA        -45.4875  -24.1801   13.0107 C.3       5 UNK         0.0224 
     63 CB        -44.0423  -24.0939   13.5263 C.3       5 UNK        -0.1978 
     64 N         -45.4837  -24.4282   11.5627 N.am      5 UNK        -0.4737 
     65 C         -46.5878  -24.4876   10.8070 C.2       4 UNK         0.5027 
     66 O         -47.7283  -24.3821   11.2628 O.2       4 UNK        -0.5211 
     67 CA        -46.3891  -24.7689    9.3097 C.3       4 UNK         0.0297 
     68 CB        -46.2423  -26.2808    9.0679 C.3       4 UNK        -0.1993 
     69 N         -47.5306  -24.2816    8.5382 N.am      4 UNK        -0.4486 
     70 C         -47.8284  -22.9991    8.3070 C.2       3 UNK         0.4961 
     71 O         -47.0651  -22.0664    8.5664 O.2       3 UNK        -0.5105 
     72 CA        -49.2165  -22.7215    7.6872 C.3       3 UNK         0.0299 
     73 CB        -49.4803  -21.2185    7.4776 C.3       3 UNK        -0.1972 
     74 N         -49.4476  -23.4240    6.4191 N.am      3 UNK        -0.4305 
     75 C         -49.6572  -24.7393    6.2762 C.2       2 UNK         0.5006 
     76 O         -49.6337  -25.5381    7.2165 O.2       2 UNK        -0.5106 
     77 CA        -49.8926  -25.2388    4.8377 C.3       2 UNK         0.0296 
     78 CB        -48.5736  -25.2448    4.0459 C.3       2 UNK        -0.2002 
     79 N         -50.4578  -26.5888    4.8080 N.am      2 UNK        -0.4032 
     80 C         -51.6713  -26.9338    5.2615 C.2       1 UNK         0.5000 
     81 O         -52.5268  -26.1255    5.6301 O.2       1 UNK        -0.5238 
     82 H82       -52.3317  -30.3240    1.2229 H         1 UNK         0.0889 
     83 H83       -50.7393  -30.3431    1.9833 H         1 UNK         0.0889 
     84 H84       -51.1919  -29.0098    0.9196 H         1 UNK         0.0889 
     85 H85       -50.8242  -29.7753    4.1450 H         1 UNK         0.3028 
     86 H86       -53.0666  -28.5315    5.3793 H         1 UNK         0.0864 
     87 H87       -51.8776  -30.0762    6.7064 H         1 UNK         0.0720 
     88 H88       -51.5643  -28.5391    7.4513 H         1 UNK         0.0720 
     89 H89       -48.4884  -31.5338    6.8536 H         1 UNK         0.0814 
     90 H90       -50.2187  -31.7226    6.8923 H         1 UNK         0.0814 
     91 H91       -47.2290  -30.9687    8.8439 H         1 UNK         0.1469 
     92 H92       -49.2825  -30.6650   12.5965 H         1 UNK         0.1381 
     93 H93       -51.5123  -30.9392    8.9417 H         1 UNK         0.1206 
     94 H94       -51.6728  -30.6226   12.6951 H         1 UNK         0.0813 
     95 H95       -52.4044  -31.6385   11.4689 H         1 UNK         0.0813 
     96 H96       -54.2397  -29.5824   13.0407 H         1 UNK         0.0638 
     97 H97       -54.7629  -30.6173   11.7303 H         1 UNK         0.0638 
     98 H98       -55.6516  -28.6284   10.4972 H         1 UNK         0.0568 
     99 H99       -58.4879  -30.1212   12.0698 H         1 UNK         0.3450 
    100 H100      -57.2715  -30.3616   10.8435 H         1 UNK         0.3450 
    101 H101      -54.2717  -27.1149   12.4927 H         1 UNK         0.2987 
    102 H102      -53.9118  -24.8062   11.2478 H         1 UNK         0.0766 
    103 H103      -55.0674  -22.6040   11.5232 H         1 UNK         0.0798 
    104 H104      -56.6214  -23.4311   11.6308 H         1 UNK         0.0798 
    105 H105      -55.6825  -23.5097   10.1504 H         1 UNK         0.0798 
    106 H106      -53.6190  -24.8576   13.4174 H         1 UNK         0.3198 
    107 H107      -54.4330  -23.5340   15.6703 H         1 UNK         0.0843 
    108 H108      -56.5091  -25.5445   16.6790 H         1 UNK         0.0831 
    109 H109      -56.6747  -23.7979   16.6300 H         1 UNK         0.0831 
    110 H110      -55.4961  -24.5293   17.7063 H         1 UNK         0.0831 
    111 H111      -52.8847  -25.0509   15.9370 H         1 UNK         0.3133 
    112 H112      -52.7252  -28.0864   17.1581 H         1 UNK         0.0566 
    113 H113      -51.4451  -29.2854   15.3679 H         1 UNK         0.0814 
    114 H114      -53.1777  -29.4271   15.1459 H         1 UNK         0.0814 
    115 H115      -52.2559  -28.3129   14.1418 H         1 UNK         0.0814 
    116 H116      -50.7678  -26.7937   15.4572 H         1 UNK         0.3091 
    117 H117      -49.9545  -24.2172   17.7753 H         1 UNK         0.0702 
    118 H118      -47.6641  -25.1098   17.4388 H         1 UNK         0.0785 
    119 H119      -48.3175  -26.6390   16.8534 H         1 UNK         0.0785 
    120 H120      -48.5677  -26.1537   18.5242 H         1 UNK         0.0785 
    121 H121      -48.8637  -24.7789   15.2321 H         1 UNK         0.2998 
    122 H122      -51.3599  -23.0492   13.2662 H         1 UNK         0.0697 
    123 H123      -48.3801  -22.6420   13.8662 H         1 UNK         0.0825 
    124 H124      -49.6377  -21.4273   14.0492 H         1 UNK         0.0825 
    125 H125      -49.2396  -22.0420   12.4515 H         1 UNK         0.0825 
    126 H126      -49.1234  -24.5836   12.4290 H         1 UNK         0.3029 
    127 H127      -50.7399  -27.7643   12.2480 H         1 UNK         0.0897 
    128 H128      -51.2522  -26.5998   10.1064 H         1 UNK         0.0792 
    129 H129      -49.8258  -27.6077    9.9471 H         1 UNK         0.0792 
    130 H130      -49.6602  -25.8575   10.1008 H         1 UNK         0.0792 
    131 H131      -48.0577  -26.8412   11.7627 H         1 UNK         0.3086 
    132 H132      -46.8692  -27.5322   15.0516 H         1 UNK         0.0583 
    133 H133      -45.3787  -29.1033   14.0726 H         1 UNK         0.1020 
    134 H134      -46.9685  -29.7878   13.9870 H         1 UNK         0.1020 
    135 H135      -46.0585  -31.4440   10.9125 H         1 UNK         0.0694 
    136 H136      -46.8617  -31.4263   12.4497 H         1 UNK         0.0694 
    137 H137      -45.5666  -26.7138   12.6379 H         1 UNK         0.2989 
    138 H138      -45.9666  -23.2124   13.1754 H         1 UNK         0.1055 
    139 H139      -44.0224  -23.8955   14.5991 H         1 UNK         0.0806 
    140 H140      -43.4950  -23.2857   13.0407 H         1 UNK         0.0806 
    141 H141      -43.4937  -25.0213   13.3564 H         1 UNK         0.0806 
    142 H142      -44.5816  -24.5339   11.1197 H         1 UNK         0.3061 
    143 H143      -45.4877  -24.2572    8.9663 H         1 UNK         0.0734 
    144 H144      -47.1255  -26.8321    9.3946 H         1 UNK         0.0832 
    145 H145      -46.0882  -26.4992    8.0110 H         1 UNK         0.0832 
    146 H146      -45.3866  -26.6874    9.6085 H         1 UNK         0.0832 
    147 H147      -48.2348  -24.9661    8.2702 H         1 UNK         0.3156 
    148 H148      -49.9534  -23.0826    8.4080 H         1 UNK         0.0589 
    149 H149      -48.7834  -20.7820    6.7611 H         1 UNK         0.0808 
    150 H150      -50.4926  -21.0388    7.1155 H         1 UNK         0.0808 
    151 H151      -49.3732  -20.6684    8.4136 H         1 UNK         0.0808 
    152 H152      -49.4403  -22.8491    5.5887 H         1 UNK         0.3098 
    153 H153      -50.5998  -24.5646    4.3504 H         1 UNK         0.0720 
    154 H154      -48.7282  -25.5802    3.0201 H         1 UNK         0.0791 
    155 H155      -47.8319  -25.9003    4.5051 H         1 UNK         0.0791 
    156 H156      -48.1370  -24.2467    3.9934 H         1 UNK         0.0791 
    157 H157      -49.8225  -27.3373    4.5739 H         1 UNK         0.3028 
@<TRIPOS>BOND
     1    1    2 1    
     2    1   82 1    
     3    1   83 1    
     4    1   84 1    
     5    2    3 2    
     6    2    4 am   BACKBONE|DICT|INTERRES
     7    4    5 1    
     8    4   85 1    
     9    5    6 1    
    10    5   80 1    
    11    5   86 1    
    12    6    7 1    
    13    6   87 1    
    14    6   88 1    
    15    7    8 1    
    16    8    9 1    
    17    8   89 1    
    18    8   90 1    
    19    9   10 ar   
    20    9   14 ar   
    21   10   11 ar   
    22   10   91 1    
    23   11   12 ar   
    24   11   58 1    
    25   12   13 ar   
    26   12   92 1    
    27   13   14 ar   
    28   13   15 1    
    29   14   93 1    
    30   15   16 1    
    31   15   94 1    
    32   15   95 1    
    33   16   17 1    
    34   17   18 1    
    35   17   96 1    
    36   17   97 1    
    37   18   19 1    
    38   18   22 1    
    39   18   98 1    
    40   19   20 am   BACKBONE|DICT|INTERRES
    41   19   21 2    
    42   20   99 1    
    43   20  100 1    
    44   22   23 am   BACKBONE|DICT|INTERRES
    45   22  101 1    
    46   23   24 2    
    47   23   25 1    
    48   25   26 1    
    49   25   27 1    
    50   25  102 1    
    51   26  103 1    
    52   26  104 1    
    53   26  105 1    
    54   27   28 am   BACKBONE|DICT|INTERRES
    55   27  106 1    
    56   28   29 2    
    57   28   30 1    
    58   30   31 1    
    59   30   32 1    
    60   30  107 1    
    61   31  108 1    
    62   31  109 1    
    63   31  110 1    
    64   32   33 am   BACKBONE|DICT|INTERRES
    65   32  111 1    
    66   33   34 2    
    67   33   35 1    
    68   35   36 1    
    69   35   37 1    
    70   35  112 1    
    71   36  113 1    
    72   36  114 1    
    73   36  115 1    
    74   37   38 am   BACKBONE|DICT|INTERRES
    75   37  116 1    
    76   38   39 2    
    77   38   40 1    
    78   40   41 1    
    79   40   42 1    
    80   40  117 1    
    81   41  118 1    
    82   41  119 1    
    83   41  120 1    
    84   42   43 am   BACKBONE|DICT|INTERRES
    85   42  121 1    
    86   43   44 2    
    87   43   45 1    
    88   45   46 1    
    89   45   47 1    
    90   45  122 1    
    91   46  123 1    
    92   46  124 1    
    93   46  125 1    
    94   47   48 am   BACKBONE|DICT|INTERRES
    95   47  126 1    
    96   48   49 2    
    97   48   50 1    
    98   50   51 1    
    99   50   52 1    
   100   50  127 1    
   101   51  128 1    
   102   51  129 1    
   103   51  130 1    
   104   52   53 am   BACKBONE|DICT|INTERRES
   105   52  131 1    
   106   53   54 2    
   107   53   55 1    
   108   55   56 1    
   109   55   59 1    
   110   55  132 1    
   111   56   57 1    
   112   56  133 1    
   113   56  134 1    
   114   57   58 1    
   115   58  135 1    
   116   58  136 1    
   117   59   60 am   BACKBONE|DICT|INTERRES
   118   59  137 1    
   119   60   61 2    
   120   60   62 1    
   121   62   63 1    
   122   62   64 1    
   123   62  138 1    
   124   63  139 1    
   125   63  140 1    
   126   63  141 1    
   127   64   65 am   BACKBONE|DICT|INTERRES
   128   64  142 1    
   129   65   66 2    
   130   65   67 1    
   131   67   68 1    
   132   67   69 1    
   133   67  143 1    
   134   68  144 1    
   135   68  145 1    
   136   68  146 1    
   137   69   70 am   BACKBONE|DICT|INTERRES
   138   69  147 1    
   139   70   71 2    
   140   70   72 1    
   141   72   73 1    
   142   72   74 1    
   143   72  148 1    
   144   73  149 1    
   145   73  150 1    
   146   73  151 1    
   147   74   75 am   BACKBONE|DICT|INTERRES
   148   74  152 1    
   149   75   76 2    
   150   75   77 1    
   151   77   78 1    
   152   77   79 1    
   153   77  153 1    
   154   78  154 1    
   155   78  155 1    
   156   78  156 1    
   157   79   80 am   BACKBONE|DICT|INTERRES
   158   79  157 1    
   159   80   81 2    
@<TRIPOS>SUBSTRUCTURE
     1 UNK         1 GROUP             0       ****    0 ROOT    
