@<TRIPOS>MOLECULE
3R207
157   159    1
SMALL
USER_CHARGES


@<TRIPOS>ATOM
      1 CA        -46.3723  -25.8750    4.4740 C.3       0 UNK        -0.1975 
      2 C         -47.4251  -26.8466    3.9614 C.2       0 UNK         0.4852 
      3 O         -48.0564  -26.5840    2.9378 O.2       0 UNK        -0.5216 
      4 N         -47.6300  -27.9624    4.6735 N.am      1 UNK        -0.4461 
      5 CA        -48.6155  -29.0068    4.3563 C.3       1 UNK         0.0864 
      6 C6        -48.1452  -30.3883    4.8867 C.3       14 UNK        -0.0898 
      7 S7        -48.0605  -30.4925    6.7128 S.3       14 UNK        -0.2598 
      8 C8        -49.4370  -31.6335    7.0797 C.3       14 UNK         0.0286 
      9 C9        -50.1721  -31.2356    8.3512 C.ar      14 UNK        -0.0844 
     10 C10       -49.5536  -31.3802    9.5958 C.ar      14 UNK        -0.0881 
     11 C11       -50.2081  -30.9907   10.7704 C.ar      14 UNK        -0.0643 
     12 C12       -51.5194  -30.5061   10.6903 C.ar      14 UNK        -0.0930 
     13 C13       -52.1532  -30.3610    9.4511 C.ar      14 UNK        -0.0827 
     14 C14       -51.4712  -30.7227    8.2853 C.ar      14 UNK        -0.1249 
     15 C15       -53.5665  -29.7996    9.3611 C.3       14 UNK         0.0141 
     16 S16       -53.5306  -28.0285    8.9551 S.3       14 UNK        -0.2313 
     17 C17       -55.2819  -27.6572    8.6189 C.3       14 UNK        -0.0915 
     18 CA        -55.7624  -26.3993    9.3934 C.3       13 UNK         0.0968 
     19 C         -57.1253  -25.8739    8.8557 C.2       13 UNK         0.5732 
     20 N         -58.1208  -25.6138    9.6958 N.am      13 UNK        -0.7310 
     21 O         -57.2803  -25.6770    7.6527 O.2       13 UNK        -0.5035 
     22 N         -55.7659  -26.6367   10.8472 N.am      13 UNK        -0.4233 
     23 C         -55.1351  -25.8868   11.7572 C.2       13 UNK         0.4989 
     24 O         -54.4479  -24.8995   11.4837 O.2       13 UNK        -0.4996 
     25 CA        -55.3046  -26.3369   13.2180 C.3       12 UNK         0.0216 
     26 CB        -54.7539  -27.7610   13.4262 C.3       12 UNK        -0.1964 
     27 N         -54.5899  -25.4336   14.1173 N.am      12 UNK        -0.4276 
     28 C         -55.1370  -24.5892   14.9983 C.2       12 UNK         0.5020 
     29 O         -56.3511  -24.4582   15.1700 O.2       12 UNK        -0.5489 
     30 CA        -54.1326  -23.7820   15.8462 C.3       11 UNK         0.0294 
     31 CB        -54.7970  -22.9056   16.9299 C.3       11 UNK        -0.2019 
     32 N         -53.0963  -24.6573   16.4107 N.am      11 UNK        -0.4493 
     33 C         -53.2608  -25.6515   17.2967 C.2       11 UNK         0.4932 
     34 O         -54.3075  -25.8678   17.9082 O.2       11 UNK        -0.5029 
     35 CA        -52.0719  -26.6054   17.5162 C.3       10 UNK         0.0280 
     36 CB        -52.3107  -27.9166   16.7489 C.3       10 UNK        -0.1976 
     37 N         -50.7727  -26.0512   17.1215 N.am      10 UNK        -0.4242 
     38 C         -50.0972  -25.1245   17.8168 C.2       10 UNK         0.5072 
     39 O         -50.4964  -24.6350   18.8743 O.2       10 UNK        -0.5224 
     40 CA        -48.7516  -24.6568   17.2316 C.3       9 UNK         0.0343 
     41 CB        -47.6437  -25.6862   17.5079 C.3       9 UNK        -0.2003 
     42 N         -48.8211  -24.3863   15.7945 N.am      9 UNK        -0.4272 
     43 C         -49.5401  -23.3997   15.2386 C.2       9 UNK         0.4988 
     44 O         -50.1696  -22.5592   15.8808 O.2       9 UNK        -0.5108 
     45 CA        -49.6064  -23.3745   13.7030 C.3       8 UNK         0.0248 
     46 CB        -48.3885  -22.6568   13.1007 C.3       8 UNK        -0.2001 
     47 N         -49.7281  -24.7206   13.1408 N.am      8 UNK        -0.4140 
     48 C         -50.8144  -25.4916   13.2851 C.2       8 UNK         0.5028 
     49 O         -51.8414  -25.1296   13.8539 O.2       8 UNK        -0.5428 
     50 CA        -50.7370  -26.9193   12.7376 C.3       7 UNK         0.0264 
     51 CB        -51.1340  -26.9330   11.2608 C.3       7 UNK        -0.1988 
     52 N         -49.4120  -27.5107   12.9060 N.am      7 UNK        -0.4454 
     53 C         -48.9184  -27.8945   14.0922 C.2       7 UNK         0.5027 
     54 O         -49.5279  -27.7692   15.1542 O.2       7 UNK        -0.5083 
     55 CA        -47.4908  -28.4761   14.1085 C.3       6 UNK         0.0844 
     56 C56       -47.4981  -30.0033   13.8325 C.3       14 UNK        -0.0967 
     57 S57       -47.8022  -30.4290   12.0787 S.3       14 UNK        -0.2604 
     58 C58       -49.5081  -31.0826   12.1249 C.3       14 UNK         0.0134 
     59 N         -46.5713  -27.7603   13.2198 N.am      6 UNK        -0.4116 
     60 C         -46.3171  -26.4451   13.2317 C.2       5 UNK         0.5034 
     61 O         -46.8051  -25.6583   14.0450 O.2       5 UNK        -0.5045 
     62 CA        -45.3998  -25.8996   12.1197 C.3       5 UNK         0.0224 
     63 CB        -44.6081  -26.9931   11.3651 C.3       5 UNK        -0.1978 
     64 N         -46.1274  -25.0575   11.1593 N.am      5 UNK        -0.4737 
     65 C         -47.2268  -25.3869   10.4661 C.2       4 UNK         0.5027 
     66 O         -47.8282  -26.4580   10.5825 O.2       4 UNK        -0.5211 
     67 CA        -47.7284  -24.3448    9.4607 C.3       4 UNK         0.0297 
     68 CB        -46.9296  -24.4272    8.1483 C.3       4 UNK        -0.1993 
     69 N         -49.1359  -24.6041    9.1754 N.am      4 UNK        -0.4486 
     70 C         -50.0961  -23.6813    9.0494 C.2       3 UNK         0.4961 
     71 O         -49.8893  -22.4712    9.1558 O.2       3 UNK        -0.5105 
     72 CA        -51.5284  -24.1943    8.7662 C.3       3 UNK         0.0299 
     73 CB        -52.4247  -23.1135    8.1265 C.3       3 UNK        -0.1972 
     74 N         -51.6035  -25.4344    7.9758 N.am      3 UNK        -0.4305 
     75 C         -51.0613  -25.6626    6.7704 C.2       2 UNK         0.5006 
     76 O         -50.3223  -24.8753    6.1743 O.2       2 UNK        -0.5106 
     77 CA        -51.4213  -26.9920    6.0994 C.3       2 UNK         0.0296 
     78 CB        -52.6243  -26.8105    5.1530 C.3       2 UNK        -0.2002 
     79 N         -50.2384  -27.4594    5.3890 N.am      2 UNK        -0.4032 
     80 C         -50.0508  -28.6593    4.8267 C.2       1 UNK         0.5000 
     81 O         -50.9444  -29.4991    4.7004 O.2       1 UNK        -0.5238 
     82 H82       -45.8515  -26.2618    5.3498 H         1 UNK         0.0889 
     83 H83       -46.8378  -24.9280    4.7463 H         1 UNK         0.0889 
     84 H84       -45.6315  -25.6810    3.6989 H         1 UNK         0.0889 
     85 H85       -47.0887  -28.1294    5.5110 H         1 UNK         0.3028 
     86 H86       -48.6748  -29.0894    3.2688 H         1 UNK         0.0864 
     87 H87       -47.1502  -30.6069    4.4960 H         1 UNK         0.0720 
     88 H88       -48.7815  -31.1822    4.4924 H         1 UNK         0.0720 
     89 H89       -49.0451  -32.6463    7.1822 H         1 UNK         0.0814 
     90 H90       -50.1390  -31.6622    6.2454 H         1 UNK         0.0814 
     91 H91       -48.5454  -31.7684    9.6447 H         1 UNK         0.1469 
     92 H92       -52.0391  -30.2109   11.5916 H         1 UNK         0.1381 
     93 H93       -51.9523  -30.5973    7.3243 H         1 UNK         0.1206 
     94 H94       -54.1011  -29.9449   10.3010 H         1 UNK         0.0813 
     95 H95       -54.1268  -30.3381    8.5953 H         1 UNK         0.0813 
     96 H96       -55.3705  -27.5125    7.5406 H         1 UNK         0.0638 
     97 H97       -55.9030  -28.5201    8.8646 H         1 UNK         0.0638 
     98 H98       -55.0600  -25.5960    9.1629 H         1 UNK         0.0568 
     99 H99       -58.0059  -25.7392   10.6882 H         1 UNK         0.3450 
    100 H100      -58.9934  -25.2671    9.3293 H         1 UNK         0.3450 
    101 H101      -56.3153  -27.4251   11.1562 H         1 UNK         0.2987 
    102 H102      -56.3713  -26.3331   13.4511 H         1 UNK         0.0766 
    103 H103      -53.7253  -27.8509   13.0785 H         1 UNK         0.0798 
    104 H104      -54.7770  -28.0444   14.4788 H         1 UNK         0.0798 
    105 H105      -55.3439  -28.5011   12.8849 H         1 UNK         0.0798 
    106 H106      -53.5780  -25.3820   13.9846 H         1 UNK         0.3198 
    107 H107      -53.6182  -23.1127   15.1543 H         1 UNK         0.0843 
    108 H108      -55.4643  -22.1715   16.4770 H         1 UNK         0.0831 
    109 H109      -54.0527  -22.3563   17.5063 H         1 UNK         0.0831 
    110 H110      -55.3938  -23.4955   17.6258 H         1 UNK         0.0831 
    111 H111      -52.2125  -24.6304   15.9153 H         1 UNK         0.3133 
    112 H112      -52.0325  -26.8397   18.5821 H         1 UNK         0.0566 
    113 H113      -51.5228  -28.6432   16.9485 H         1 UNK         0.0814 
    114 H114      -53.2560  -28.3765   17.0402 H         1 UNK         0.0814 
    115 H115      -52.3476  -27.7498   15.6717 H         1 UNK         0.0814 
    116 H116      -50.3369  -26.4623   16.2994 H         1 UNK         0.3091 
    117 H117      -48.4787  -23.7250   17.7315 H         1 UNK         0.0702 
    118 H118      -46.6757  -25.3301   17.1544 H         1 UNK         0.0785 
    119 H119      -47.8451  -26.6407   17.0209 H         1 UNK         0.0785 
    120 H120      -47.5484  -25.8789   18.5774 H         1 UNK         0.0785 
    121 H121      -48.2776  -24.9914   15.1859 H         1 UNK         0.2998 
    122 H122      -50.4995  -22.8121   13.4212 H         1 UNK         0.0697 
    123 H123      -47.4576  -23.1864   13.3039 H         1 UNK         0.0825 
    124 H124      -48.2870  -21.6525   13.5141 H         1 UNK         0.0825 
    125 H125      -48.4899  -22.5498   12.0211 H         1 UNK         0.0825 
    126 H126      -48.9077  -25.1203   12.7083 H         1 UNK         0.3029 
    127 H127      -51.4489  -27.5328   13.2916 H         1 UNK         0.0897 
    128 H128      -51.0679  -27.9295   10.8339 H         1 UNK         0.0792 
    129 H129      -50.4910  -26.2883   10.6711 H         1 UNK         0.0792 
    130 H130      -52.1582  -26.5821   11.1340 H         1 UNK         0.0792 
    131 H131      -48.8296  -27.5893   12.0777 H         1 UNK         0.3086 
    132 H132      -47.1118  -28.3295   15.1220 H         1 UNK         0.0583 
    133 H133      -46.5263  -30.4186   14.1041 H         1 UNK         0.1020 
    134 H134      -48.2156  -30.5154   14.4773 H         1 UNK         0.1020 
    135 H135      -49.4861  -32.1234   12.4501 H         1 UNK         0.0694 
    136 H136      -50.0782  -30.5311   12.8740 H         1 UNK         0.0694 
    137 H137      -46.1689  -28.3132   12.4769 H         1 UNK         0.2989 
    138 H138      -44.6765  -25.2545   12.6216 H         1 UNK         0.1055 
    139 H139      -44.0319  -27.6134   12.0533 H         1 UNK         0.0806 
    140 H140      -43.8952  -26.5463   10.6720 H         1 UNK         0.0806 
    141 H141      -45.2569  -27.6497   10.7836 H         1 UNK         0.0806 
    142 H142      -45.7295  -24.1406   11.0070 H         1 UNK         0.3061 
    143 H143      -47.6063  -23.3528    9.8998 H         1 UNK         0.0734 
    144 H144      -47.2894  -23.6989    7.4211 H         1 UNK         0.0832 
    145 H145      -45.8713  -24.2234    8.3158 H         1 UNK         0.0832 
    146 H146      -47.0052  -25.4159    7.6938 H         1 UNK         0.0832 
    147 H147      -49.3799  -25.5846    9.1363 H         1 UNK         0.3156 
    148 H148      -51.9574  -24.4305    9.7411 H         1 UNK         0.0589 
    149 H149      -52.0379  -22.7921    7.1588 H         1 UNK         0.0808 
    150 H150      -53.4411  -23.4787    7.9782 H         1 UNK         0.0808 
    151 H151      -52.4920  -22.2297    8.7621 H         1 UNK         0.0808 
    152 H152      -52.1830  -26.1646    8.3725 H         1 UNK         0.3098 
    153 H153      -51.6585  -27.7334    6.8623 H         1 UNK         0.0720 
    154 H154      -52.9410  -27.7565    4.7148 H         1 UNK         0.0791 
    155 H155      -52.3930  -26.1234    4.3382 H         1 UNK         0.0791 
    156 H156      -53.4834  -26.4059    5.6898 H         1 UNK         0.0791 
    157 H157      -49.4631  -26.8096    5.4122 H         1 UNK         0.3028 
@<TRIPOS>BOND
     1    1    2 1    
     2    1   82 1    
     3    1   83 1    
     4    1   84 1    
     5    2    3 2    
     6    2    4 am   BACKBONE|DICT|INTERRES
     7    4    5 1    
     8    4   85 1    
     9    5    6 1    
    10    5   80 1    
    11    5   86 1    
    12    6    7 1    
    13    6   87 1    
    14    6   88 1    
    15    7    8 1    
    16    8    9 1    
    17    8   89 1    
    18    8   90 1    
    19    9   10 ar   
    20    9   14 ar   
    21   10   11 ar   
    22   10   91 1    
    23   11   12 ar   
    24   11   58 1    
    25   12   13 ar   
    26   12   92 1    
    27   13   14 ar   
    28   13   15 1    
    29   14   93 1    
    30   15   16 1    
    31   15   94 1    
    32   15   95 1    
    33   16   17 1    
    34   17   18 1    
    35   17   96 1    
    36   17   97 1    
    37   18   19 1    
    38   18   22 1    
    39   18   98 1    
    40   19   20 am   BACKBONE|DICT|INTERRES
    41   19   21 2    
    42   20   99 1    
    43   20  100 1    
    44   22   23 am   BACKBONE|DICT|INTERRES
    45   22  101 1    
    46   23   24 2    
    47   23   25 1    
    48   25   26 1    
    49   25   27 1    
    50   25  102 1    
    51   26  103 1    
    52   26  104 1    
    53   26  105 1    
    54   27   28 am   BACKBONE|DICT|INTERRES
    55   27  106 1    
    56   28   29 2    
    57   28   30 1    
    58   30   31 1    
    59   30   32 1    
    60   30  107 1    
    61   31  108 1    
    62   31  109 1    
    63   31  110 1    
    64   32   33 am   BACKBONE|DICT|INTERRES
    65   32  111 1    
    66   33   34 2    
    67   33   35 1    
    68   35   36 1    
    69   35   37 1    
    70   35  112 1    
    71   36  113 1    
    72   36  114 1    
    73   36  115 1    
    74   37   38 am   BACKBONE|DICT|INTERRES
    75   37  116 1    
    76   38   39 2    
    77   38   40 1    
    78   40   41 1    
    79   40   42 1    
    80   40  117 1    
    81   41  118 1    
    82   41  119 1    
    83   41  120 1    
    84   42   43 am   BACKBONE|DICT|INTERRES
    85   42  121 1    
    86   43   44 2    
    87   43   45 1    
    88   45   46 1    
    89   45   47 1    
    90   45  122 1    
    91   46  123 1    
    92   46  124 1    
    93   46  125 1    
    94   47   48 am   BACKBONE|DICT|INTERRES
    95   47  126 1    
    96   48   49 2    
    97   48   50 1    
    98   50   51 1    
    99   50   52 1    
   100   50  127 1    
   101   51  128 1    
   102   51  129 1    
   103   51  130 1    
   104   52   53 am   BACKBONE|DICT|INTERRES
   105   52  131 1    
   106   53   54 2    
   107   53   55 1    
   108   55   56 1    
   109   55   59 1    
   110   55  132 1    
   111   56   57 1    
   112   56  133 1    
   113   56  134 1    
   114   57   58 1    
   115   58  135 1    
   116   58  136 1    
   117   59   60 am   BACKBONE|DICT|INTERRES
   118   59  137 1    
   119   60   61 2    
   120   60   62 1    
   121   62   63 1    
   122   62   64 1    
   123   62  138 1    
   124   63  139 1    
   125   63  140 1    
   126   63  141 1    
   127   64   65 am   BACKBONE|DICT|INTERRES
   128   64  142 1    
   129   65   66 2    
   130   65   67 1    
   131   67   68 1    
   132   67   69 1    
   133   67  143 1    
   134   68  144 1    
   135   68  145 1    
   136   68  146 1    
   137   69   70 am   BACKBONE|DICT|INTERRES
   138   69  147 1    
   139   70   71 2    
   140   70   72 1    
   141   72   73 1    
   142   72   74 1    
   143   72  148 1    
   144   73  149 1    
   145   73  150 1    
   146   73  151 1    
   147   74   75 am   BACKBONE|DICT|INTERRES
   148   74  152 1    
   149   75   76 2    
   150   75   77 1    
   151   77   78 1    
   152   77   79 1    
   153   77  153 1    
   154   78  154 1    
   155   78  155 1    
   156   78  156 1    
   157   79   80 am   BACKBONE|DICT|INTERRES
   158   79  157 1    
   159   80   81 2    
@<TRIPOS>SUBSTRUCTURE
     1 UNK         1 GROUP             0       ****    0 ROOT    
