@<TRIPOS>MOLECULE
3R207
157   159    1
SMALL
USER_CHARGES


@<TRIPOS>ATOM
      1 CA        -50.8143  -23.3574    8.7323 C.3       0 UNK        -0.1975 
      2 C         -50.5992  -24.7595    8.1829 C.2       0 UNK         0.4852 
      3 O         -49.9132  -25.5697    8.8091 O.2       0 UNK        -0.5216 
      4 N         -51.2112  -25.0615    7.0321 N.am      1 UNK        -0.4461 
      5 CA        -51.0995  -26.3386    6.3251 C.3       1 UNK         0.0864 
      6 C6        -52.3303  -26.5457    5.4015 C.3       14 UNK        -0.0898 
      7 S7        -52.6499  -28.1910    4.6534 S.3       14 UNK        -0.2598 
      8 C8        -51.4266  -29.3827    5.3066 C.3       14 UNK         0.0286 
      9 C9        -51.6116  -29.7296    6.7805 C.ar      14 UNK        -0.0844 
     10 C10       -50.4975  -29.7736    7.6228 C.ar      14 UNK        -0.0881 
     11 C11       -50.6349  -30.0908    8.9789 C.ar      14 UNK        -0.0643 
     12 C12       -51.9019  -30.4083    9.4790 C.ar      14 UNK        -0.0930 
     13 C13       -53.0242  -30.3882    8.6457 C.ar      14 UNK        -0.0827 
     14 C14       -52.8721  -30.0443    7.2989 C.ar      14 UNK        -0.1249 
     15 C15       -54.3976  -30.7596    9.1885 C.3       14 UNK         0.0141 
     16 S16       -55.0380  -29.5044   10.3427 S.3       14 UNK        -0.2313 
     17 C17       -54.5864  -30.1956   11.9723 C.3       14 UNK        -0.0915 
     18 CA        -55.6720  -29.8707   13.0334 C.3       13 UNK         0.0968 
     19 C         -55.5566  -30.7716   14.2968 C.2       13 UNK         0.5732 
     20 N         -55.5193  -30.2321   15.5070 N.am      13 UNK        -0.7310 
     21 O         -55.5220  -31.9941   14.1781 O.2       13 UNK        -0.5035 
     22 N         -55.7284  -28.4242   13.3069 N.am      13 UNK        -0.4233 
     23 C         -56.8407  -27.7500   13.6175 C.2       13 UNK         0.4989 
     24 O         -57.9437  -28.2730   13.7880 O.2       13 UNK        -0.4996 
     25 CA        -56.6715  -26.2275   13.7321 C.3       12 UNK         0.0216 
     26 CB        -58.0075  -25.4604   13.8495 C.3       12 UNK        -0.1964 
     27 N         -55.7317  -25.8679   14.7986 N.am      12 UNK        -0.4276 
     28 C         -55.9133  -25.9564   16.1240 C.2       12 UNK         0.5020 
     29 O         -56.9378  -26.3824   16.6605 O.2       12 UNK        -0.5489 
     30 CA        -54.7338  -25.4709   16.9862 C.3       11 UNK         0.0294 
     31 CB        -55.0354  -25.4786   18.5009 C.3       11 UNK        -0.2019 
     32 N         -53.4942  -26.1945   16.6863 N.am      11 UNK        -0.4493 
     33 C         -53.2462  -27.5008   16.8696 C.2       11 UNK         0.4932 
     34 O         -54.0564  -28.2840   17.3636 O.2       11 UNK        -0.5029 
     35 CA        -51.8746  -28.0505   16.4256 C.3       10 UNK         0.0280 
     36 CB        -52.0514  -29.0768   15.2932 C.3       10 UNK        -0.1976 
     37 N         -50.9299  -27.0203   15.9866 N.am      10 UNK        -0.4242 
     38 C         -50.2789  -26.1669   16.7896 C.2       10 UNK         0.5072 
     39 O         -50.3361  -26.2016   18.0191 O.2       10 UNK        -0.5224 
     40 CA        -49.4680  -25.0521   16.1010 C.3       9 UNK         0.0343 
     41 CB        -48.0549  -25.5431   15.7505 C.3       9 UNK        -0.2003 
     42 N         -50.1202  -24.5250   14.8962 N.am      9 UNK        -0.4272 
     43 C         -51.3224  -23.9276   14.8772 C.2       9 UNK         0.4988 
     44 O         -51.9978  -23.7136   15.8829 O.2       9 UNK        -0.5108 
     45 CA        -51.9018  -23.5688   13.5021 C.3       8 UNK         0.0248 
     46 CB        -51.2846  -22.2710   12.9570 C.3       8 UNK        -0.2001 
     47 N         -51.7102  -24.6594   12.5476 N.am      8 UNK        -0.4140 
     48 C         -52.3968  -25.8110   12.5658 C.2       8 UNK         0.5028 
     49 O         -53.3208  -26.0533   13.3438 O.2       8 UNK        -0.5428 
     50 CA        -51.9598  -26.8858   11.5602 C.3       7 UNK         0.0264 
     51 CB        -52.7264  -26.7164   10.2411 C.3       7 UNK        -0.1988 
     52 N         -50.5123  -26.8749   11.3190 N.am      7 UNK        -0.4454 
     53 C         -49.6089  -27.2446   12.2414 C.2       7 UNK         0.5027 
     54 O         -49.9162  -27.6191   13.3720 O.2       7 UNK        -0.5083 
     55 CA        -48.1129  -27.1501   11.8756 C.3       6 UNK         0.0844 
     56 C56       -47.5764  -28.4644   11.2582 C.3       14 UNK        -0.0967 
     57 S57       -48.2240  -28.7912    9.5830 S.3       14 UNK        -0.2604 
     58 C58       -49.4297  -30.1217    9.9137 C.3       14 UNK         0.0134 
     59 N         -47.7766  -25.9825   11.0618 N.am      6 UNK        -0.4116 
     60 C         -47.9594  -24.7031   11.4108 C.2       5 UNK         0.5034 
     61 O         -48.5164  -24.3523   12.4535 O.2       5 UNK        -0.5045 
     62 CA        -47.4348  -23.6514   10.4146 C.3       5 UNK         0.0224 
     63 CB        -47.3082  -22.2419   11.0296 C.3       5 UNK        -0.1978 
     64 N         -46.1905  -24.0634    9.7505 N.am      5 UNK        -0.4737 
     65 C         -44.9931  -24.2794   10.3208 C.2       4 UNK         0.5027 
     66 O         -44.7685  -24.1170   11.5202 O.2       4 UNK        -0.5211 
     67 CA        -43.8485  -24.7931    9.4214 C.3       4 UNK         0.0297 
     68 CB        -43.4859  -26.2401    9.7985 C.3       4 UNK        -0.1993 
     69 N         -44.1503  -24.7477    7.9887 N.am      4 UNK        -0.4486 
     70 C         -44.2184  -23.6388    7.2390 C.2       3 UNK         0.4961 
     71 O         -43.9244  -22.5162    7.6497 O.2       3 UNK        -0.5105 
     72 CA        -44.7307  -23.8047    5.7926 C.3       3 UNK         0.0299 
     73 CB        -43.5549  -23.7798    4.8025 C.3       3 UNK        -0.1972 
     74 N         -45.5299  -25.0182    5.5628 N.am      3 UNK        -0.4305 
     75 C         -46.6813  -25.3151    6.1823 C.2       2 UNK         0.5006 
     76 O         -47.1988  -24.5954    7.0400 O.2       2 UNK        -0.5106 
     77 CA        -47.3022  -26.6787    5.8423 C.3       2 UNK         0.0296 
     78 CB        -46.5047  -27.8082    6.5162 C.3       2 UNK        -0.2002 
     79 N         -48.6873  -26.7350    6.3084 N.am      2 UNK        -0.4032 
     80 C         -49.7484  -26.3668    5.5811 C.2       1 UNK         0.5000 
     81 O         -49.6848  -26.0232    4.3982 O.2       1 UNK        -0.5238 
     82 H82       -50.7945  -23.3660    9.8213 H         1 UNK         0.0889 
     83 H83       -51.7755  -22.9505    8.4190 H         1 UNK         0.0889 
     84 H84       -50.0288  -22.6904    8.3784 H         1 UNK         0.0889 
     85 H85       -51.7427  -24.3468    6.5556 H         1 UNK         0.3028 
     86 H86       -51.1035  -27.1264    7.0778 H         1 UNK         0.0864 
     87 H87       -53.2301  -26.3193    5.9762 H         1 UNK         0.0720 
     88 H88       -52.3236  -25.8128    4.5925 H         1 UNK         0.0720 
     89 H89       -51.5295  -30.3074    4.7375 H         1 UNK         0.0814 
     90 H90       -50.4173  -29.0279    5.1003 H         1 UNK         0.0814 
     91 H91       -49.5176  -29.5548    7.2219 H         1 UNK         0.1469 
     92 H92       -52.0185  -30.6727   10.5207 H         1 UNK         0.1381 
     93 H93       -53.7356  -30.0298    6.6480 H         1 UNK         0.1206 
     94 H94       -54.3556  -31.7414    9.6609 H         1 UNK         0.0813 
     95 H95       -55.1113  -30.8569    8.3690 H         1 UNK         0.0813 
     96 H96       -53.6150  -29.8040   12.2760 H         1 UNK         0.0638 
     97 H97       -54.4620  -31.2744   11.8689 H         1 UNK         0.0638 
     98 H98       -56.6300  -30.1594   12.5964 H         1 UNK         0.0568 
     99 H99       -55.5384  -29.2328   15.6370 H         1 UNK         0.3450 
    100 H100      -55.4488  -30.8348   16.3107 H         1 UNK         0.3450 
    101 H101      -54.8625  -27.9121   13.2098 H         1 UNK         0.2987 
    102 H102      -56.2028  -25.9029   12.8013 H         1 UNK         0.0766 
    103 H103      -57.8435  -24.3844   13.9051 H         1 UNK         0.0798 
    104 H104      -58.5794  -25.7590   14.7283 H         1 UNK         0.0798 
    105 H105      -58.6374  -25.6481   12.9792 H         1 UNK         0.0798 
    106 H106      -54.7998  -25.6288   14.4634 H         1 UNK         0.3198 
    107 H107      -54.5561  -24.4327   16.7010 H         1 UNK         0.0843 
    108 H108      -55.2682  -26.4785   18.8680 H         1 UNK         0.0831 
    109 H109      -55.8936  -24.8450   18.7277 H         1 UNK         0.0831 
    110 H110      -54.1905  -25.0983   19.0748 H         1 UNK         0.0831 
    111 H111      -52.7612  -25.6247   16.2792 H         1 UNK         0.3133 
    112 H112      -51.4397  -28.5655   17.2844 H         1 UNK         0.0566 
    113 H113      -51.0958  -29.5068   14.9930 H         1 UNK         0.0814 
    114 H114      -52.6878  -29.9040   15.6087 H         1 UNK         0.0814 
    115 H115      -52.5092  -28.6273   14.4118 H         1 UNK         0.0814 
    116 H116      -50.7419  -26.9819   14.9880 H         1 UNK         0.3091 
    117 H117      -49.3754  -24.2256   16.8085 H         1 UNK         0.0702 
    118 H118      -47.4645  -24.7560   15.2806 H         1 UNK         0.0785 
    119 H119      -48.0816  -26.3937   15.0700 H         1 UNK         0.0785 
    120 H120      -47.5204  -25.8605   16.6467 H         1 UNK         0.0785 
    121 H121      -49.6076  -24.6132   14.0224 H         1 UNK         0.2998 
    122 H122      -52.9753  -23.4057   13.6221 H         1 UNK         0.0697 
    123 H123      -50.2052  -22.3518   12.8313 H         1 UNK         0.0825 
    124 H124      -51.4685  -21.4398   13.6390 H         1 UNK         0.0825 
    125 H125      -51.7164  -21.9994   11.9937 H         1 UNK         0.0825 
    126 H126      -50.9286  -24.5804   11.9136 H         1 UNK         0.3029 
    127 H127      -52.2185  -27.8603   11.9776 H         1 UNK         0.0897 
    128 H128      -53.7945  -26.8675   10.3966 H         1 UNK         0.0792 
    129 H129      -52.4005  -27.4352    9.4887 H         1 UNK         0.0792 
    130 H130      -52.6133  -25.7151    9.8306 H         1 UNK         0.0792 
    131 H131      -50.1906  -26.5612   10.4047 H         1 UNK         0.3086 
    132 H132      -47.5816  -27.0114   12.8189 H         1 UNK         0.0583 
    133 H133      -46.4888  -28.4112   11.1866 H         1 UNK         0.1020 
    134 H134      -47.7755  -29.3117   11.9172 H         1 UNK         0.1020 
    135 H135      -48.9295  -31.0865    9.8229 H         1 UNK         0.0694 
    136 H136      -49.7739  -30.0439   10.9461 H         1 UNK         0.0694 
    137 H137      -47.3727  -26.1751   10.1577 H         1 UNK         0.2989 
    138 H138      -48.1771  -23.5941    9.6210 H         1 UNK         0.1055 
    139 H139      -48.2780  -21.8747   11.3660 H         1 UNK         0.0806 
    140 H140      -46.9262  -21.5250   10.3030 H         1 UNK         0.0806 
    141 H141      -46.6423  -22.2338   11.8929 H         1 UNK         0.0806 
    142 H142      -46.2848  -24.2338    8.7525 H         1 UNK         0.3061 
    143 H143      -42.9791  -24.1594    9.6088 H         1 UNK         0.0734 
    144 H144      -42.6357  -26.6015    9.2197 H         1 UNK         0.0832 
    145 H145      -43.2098  -26.3123   10.8515 H         1 UNK         0.0832 
    146 H146      -44.3207  -26.9229    9.6348 H         1 UNK         0.0832 
    147 H147      -44.3929  -25.6237    7.5509 H         1 UNK         0.3156 
    148 H148      -45.3729  -22.9473    5.5807 H         1 UNK         0.0589 
    149 H149      -42.8876  -24.6307    4.9457 H         1 UNK         0.0808 
    150 H150      -43.9035  -23.7945    3.7696 H         1 UNK         0.0808 
    151 H151      -42.9587  -22.8745    4.9266 H         1 UNK         0.0808 
    152 H152      -45.1667  -25.6703    4.8816 H         1 UNK         0.3098 
    153 H153      -47.2702  -26.8225    4.7602 H         1 UNK         0.0720 
    154 H154      -46.9885  -28.7753    6.3767 H         1 UNK         0.0791 
    155 H155      -46.3937  -27.6420    7.5881 H         1 UNK         0.0791 
    156 H156      -45.5018  -27.8887    6.0956 H         1 UNK         0.0791 
    157 H157      -48.8215  -26.8418    7.3072 H         1 UNK         0.3028 
@<TRIPOS>BOND
     1    1    2 1    
     2    1   82 1    
     3    1   83 1    
     4    1   84 1    
     5    2    3 2    
     6    2    4 am   BACKBONE|DICT|INTERRES
     7    4    5 1    
     8    4   85 1    
     9    5    6 1    
    10    5   80 1    
    11    5   86 1    
    12    6    7 1    
    13    6   87 1    
    14    6   88 1    
    15    7    8 1    
    16    8    9 1    
    17    8   89 1    
    18    8   90 1    
    19    9   10 ar   
    20    9   14 ar   
    21   10   11 ar   
    22   10   91 1    
    23   11   12 ar   
    24   11   58 1    
    25   12   13 ar   
    26   12   92 1    
    27   13   14 ar   
    28   13   15 1    
    29   14   93 1    
    30   15   16 1    
    31   15   94 1    
    32   15   95 1    
    33   16   17 1    
    34   17   18 1    
    35   17   96 1    
    36   17   97 1    
    37   18   19 1    
    38   18   22 1    
    39   18   98 1    
    40   19   20 am   BACKBONE|DICT|INTERRES
    41   19   21 2    
    42   20   99 1    
    43   20  100 1    
    44   22   23 am   BACKBONE|DICT|INTERRES
    45   22  101 1    
    46   23   24 2    
    47   23   25 1    
    48   25   26 1    
    49   25   27 1    
    50   25  102 1    
    51   26  103 1    
    52   26  104 1    
    53   26  105 1    
    54   27   28 am   BACKBONE|DICT|INTERRES
    55   27  106 1    
    56   28   29 2    
    57   28   30 1    
    58   30   31 1    
    59   30   32 1    
    60   30  107 1    
    61   31  108 1    
    62   31  109 1    
    63   31  110 1    
    64   32   33 am   BACKBONE|DICT|INTERRES
    65   32  111 1    
    66   33   34 2    
    67   33   35 1    
    68   35   36 1    
    69   35   37 1    
    70   35  112 1    
    71   36  113 1    
    72   36  114 1    
    73   36  115 1    
    74   37   38 am   BACKBONE|DICT|INTERRES
    75   37  116 1    
    76   38   39 2    
    77   38   40 1    
    78   40   41 1    
    79   40   42 1    
    80   40  117 1    
    81   41  118 1    
    82   41  119 1    
    83   41  120 1    
    84   42   43 am   BACKBONE|DICT|INTERRES
    85   42  121 1    
    86   43   44 2    
    87   43   45 1    
    88   45   46 1    
    89   45   47 1    
    90   45  122 1    
    91   46  123 1    
    92   46  124 1    
    93   46  125 1    
    94   47   48 am   BACKBONE|DICT|INTERRES
    95   47  126 1    
    96   48   49 2    
    97   48   50 1    
    98   50   51 1    
    99   50   52 1    
   100   50  127 1    
   101   51  128 1    
   102   51  129 1    
   103   51  130 1    
   104   52   53 am   BACKBONE|DICT|INTERRES
   105   52  131 1    
   106   53   54 2    
   107   53   55 1    
   108   55   56 1    
   109   55   59 1    
   110   55  132 1    
   111   56   57 1    
   112   56  133 1    
   113   56  134 1    
   114   57   58 1    
   115   58  135 1    
   116   58  136 1    
   117   59   60 am   BACKBONE|DICT|INTERRES
   118   59  137 1    
   119   60   61 2    
   120   60   62 1    
   121   62   63 1    
   122   62   64 1    
   123   62  138 1    
   124   63  139 1    
   125   63  140 1    
   126   63  141 1    
   127   64   65 am   BACKBONE|DICT|INTERRES
   128   64  142 1    
   129   65   66 2    
   130   65   67 1    
   131   67   68 1    
   132   67   69 1    
   133   67  143 1    
   134   68  144 1    
   135   68  145 1    
   136   68  146 1    
   137   69   70 am   BACKBONE|DICT|INTERRES
   138   69  147 1    
   139   70   71 2    
   140   70   72 1    
   141   72   73 1    
   142   72   74 1    
   143   72  148 1    
   144   73  149 1    
   145   73  150 1    
   146   73  151 1    
   147   74   75 am   BACKBONE|DICT|INTERRES
   148   74  152 1    
   149   75   76 2    
   150   75   77 1    
   151   77   78 1    
   152   77   79 1    
   153   77  153 1    
   154   78  154 1    
   155   78  155 1    
   156   78  156 1    
   157   79   80 am   BACKBONE|DICT|INTERRES
   158   79  157 1    
   159   80   81 2    
@<TRIPOS>SUBSTRUCTURE
     1 UNK         1 GROUP             0       ****    0 ROOT    
