@<TRIPOS>MOLECULE
3R207
157   159    1
SMALL
USER_CHARGES


@<TRIPOS>ATOM
      1 CA        -45.5841  -32.4275    2.5434 C.3       0 UNK        -0.1975 
      2 C         -45.9458  -31.4316    3.6361 C.2       0 UNK         0.4852 
      3 O         -45.1186  -31.1603    4.5078 O.2       0 UNK        -0.5216 
      4 N         -47.1753  -30.8973    3.5927 N.am      1 UNK        -0.4461 
      5 CA        -47.7200  -29.8833    4.5063 C.3       1 UNK         0.0864 
      6 C6        -47.7533  -30.3690    5.9874 C.3       14 UNK        -0.0898 
      7 S7        -49.0627  -29.5840    6.9843 S.3       14 UNK        -0.2598 
      8 C8        -50.4785  -30.6711    6.6460 C.3       14 UNK         0.0286 
      9 C9        -51.7620  -30.0942    7.2240 C.ar      14 UNK        -0.0844 
     10 C10       -52.2311  -28.8539    6.7808 C.ar      14 UNK        -0.0881 
     11 C11       -53.4164  -28.3203    7.2905 C.ar      14 UNK        -0.0643 
     12 C12       -54.1582  -29.0566    8.2169 C.ar      14 UNK        -0.0930 
     13 C13       -53.6865  -30.2829    8.6942 C.ar      14 UNK        -0.0827 
     14 C14       -52.4859  -30.7971    8.1923 C.ar      14 UNK        -0.1249 
     15 C15       -54.4728  -31.0576    9.7439 C.3       14 UNK         0.0141 
     16 S16       -54.4255  -30.2477   11.3794 S.3       14 UNK        -0.2313 
     17 C17       -55.8677  -29.1286   11.2987 C.3       14 UNK        -0.0915 
     18 CA        -55.4847  -27.6174   11.2933 C.3       13 UNK         0.0968 
     19 C         -56.6905  -26.6922   10.9449 C.2       13 UNK         0.5732 
     20 N         -56.7987  -25.4973   11.5143 N.am      13 UNK        -0.7310 
     21 O         -57.5285  -27.0448   10.1182 O.2       13 UNK        -0.5035 
     22 N         -54.7141  -27.1920   12.4728 N.am      13 UNK        -0.4233 
     23 C         -55.1066  -27.2470   13.7500 C.2       13 UNK         0.4989 
     24 O         -56.1741  -27.7262   14.1418 O.2       13 UNK        -0.4996 
     25 CA        -54.1575  -26.6021   14.7608 C.3       12 UNK         0.0216 
     26 CB        -54.3939  -25.0825   14.8277 C.3       12 UNK        -0.1964 
     27 N         -54.3803  -27.1848   16.0807 N.am      12 UNK        -0.4276 
     28 C         -53.4582  -27.2696   17.0433 C.2       12 UNK         0.5020 
     29 O         -52.2788  -26.9294   16.9080 O.2       12 UNK        -0.5489 
     30 CA        -53.9175  -27.8339   18.3938 C.3       11 UNK         0.0294 
     31 CB        -53.5767  -29.3289   18.5028 C.3       11 UNK        -0.2019 
     32 N         -53.2049  -27.0980   19.4342 N.am      11 UNK        -0.4493 
     33 C         -53.6961  -26.0412   20.0919 C.2       11 UNK         0.4932 
     34 O         -54.8861  -25.7242   20.1027 O.2       11 UNK        -0.5029 
     35 CA        -52.6712  -25.1651   20.8345 C.3       10 UNK         0.0280 
     36 CB        -52.4427  -25.6887   22.2617 C.3       10 UNK        -0.1976 
     37 N         -51.3847  -25.0716   20.1324 N.am      10 UNK        -0.4242 
     38 C         -51.1943  -24.4725   18.9457 C.2       10 UNK         0.5072 
     39 O         -52.0815  -23.8744   18.3350 O.2       10 UNK        -0.5224 
     40 CA        -49.7786  -24.5216   18.3470 C.3       9 UNK         0.0343 
     41 CB        -48.7489  -25.3097   19.1882 C.3       9 UNK        -0.2003 
     42 N         -49.8313  -25.0718   16.9915 N.am      9 UNK        -0.4272 
     43 C         -49.0000  -24.7237   15.9981 C.2       9 UNK         0.4988 
     44 O         -48.1381  -23.8489   16.1080 O.2       9 UNK        -0.5108 
     45 CA        -49.0871  -25.4971   14.6652 C.3       8 UNK         0.0248 
     46 CB        -49.8585  -26.8279   14.7454 C.3       8 UNK        -0.2001 
     47 N         -49.5844  -24.6928   13.5444 N.am      8 UNK        -0.4140 
     48 C         -50.7107  -23.9656   13.4933 C.2       8 UNK         0.5028 
     49 O         -51.4697  -23.7892   14.4439 O.2       8 UNK        -0.5428 
     50 CA        -51.0724  -23.3375   12.1365 C.3       7 UNK         0.0264 
     51 CB        -50.2728  -22.0457   11.9027 C.3       7 UNK        -0.1988 
     52 N         -50.8901  -24.2473   11.0012 N.am      7 UNK        -0.4454 
     53 C         -51.5758  -25.3867   10.8093 C.2       7 UNK         0.5027 
     54 O         -52.4488  -25.7973   11.5766 O.2       7 UNK        -0.5083 
     55 CA        -51.2098  -26.2179    9.5574 C.3       6 UNK         0.0844 
     56 C56       -51.7917  -25.6068    8.2553 C.3       14 UNK        -0.0967 
     57 S57       -53.6161  -25.6971    8.1591 S.3       14 UNK        -0.2604 
     58 C58       -53.8889  -26.9422    6.8557 C.3       14 UNK         0.0134 
     59 N         -49.7588  -26.4003    9.4636 N.am      6 UNK        -0.4116 
     60 C         -49.0099  -27.0910   10.3356 C.2       5 UNK         0.5034 
     61 O         -49.4727  -27.7873   11.2380 O.2       5 UNK        -0.5045 
     62 CA        -47.4818  -26.9440   10.2198 C.3       5 UNK         0.0224 
     63 CB        -46.8690  -28.0177    9.3089 C.3       5 UNK        -0.1978 
     64 N         -47.0765  -25.6173    9.7500 N.am      5 UNK        -0.4737 
     65 C         -47.1132  -24.5086   10.5004 C.2       4 UNK         0.5027 
     66 O         -47.4614  -24.4945   11.6795 O.2       4 UNK        -0.5211 
     67 CA        -46.7242  -23.1900    9.8111 C.3       4 UNK         0.0297 
     68 CB        -45.2018  -22.9864    9.8588 C.3       4 UNK        -0.1993 
     69 N         -47.1868  -23.1160    8.4228 N.am      4 UNK        -0.4486 
     70 C         -48.4754  -23.0692    8.0562 C.2       3 UNK         0.4961 
     71 O         -49.4139  -23.0513    8.8513 O.2       3 UNK        -0.5105 
     72 CA        -48.7657  -23.1116    6.5462 C.3       3 UNK         0.0299 
     73 CB        -48.6507  -21.7075    5.9323 C.3       3 UNK        -0.1972 
     74 N         -47.9016  -24.0475    5.8161 N.am      3 UNK        -0.4305 
     75 C         -47.8534  -25.3660    6.0478 C.2       2 UNK         0.5006 
     76 O         -48.5213  -25.9331    6.9162 O.2       2 UNK        -0.5106 
     77 CA        -46.8656  -26.1809    5.2084 C.3       2 UNK         0.0296 
     78 CB        -45.4381  -26.0665    5.7740 C.3       2 UNK        -0.2002 
     79 N         -47.2970  -27.5740    5.2325 N.am      2 UNK        -0.4032 
     80 C         -47.0590  -28.4965    4.2962 C.2       1 UNK         0.5000 
     81 O         -46.3944  -28.2700    3.2799 O.2       1 UNK        -0.5238 
     82 H82       -45.3204  -33.3886    2.9840 H         1 UNK         0.0889 
     83 H83       -44.7270  -32.0656    1.9760 H         1 UNK         0.0889 
     84 H84       -46.4075  -32.5883    1.8477 H         1 UNK         0.0889 
     85 H85       -47.7847  -31.1482    2.8266 H         1 UNK         0.3028 
     86 H86       -48.7522  -29.7544    4.1774 H         1 UNK         0.0864 
     87 H87       -47.9133  -31.4478    6.0272 H         1 UNK         0.0720 
     88 H88       -46.7915  -30.1998    6.4753 H         1 UNK         0.0720 
     89 H89       -50.2749  -31.6619    7.0552 H         1 UNK         0.0814 
     90 H90       -50.5990  -30.7953    5.5691 H         1 UNK         0.0814 
     91 H91       -51.6601  -28.2978    6.0498 H         1 UNK         0.1469 
     92 H92       -55.0919  -28.6571    8.5833 H         1 UNK         0.1381 
     93 H93       -52.1191  -31.7499    8.5491 H         1 UNK         0.1206 
     94 H94       -55.5021  -31.1982    9.4120 H         1 UNK         0.0813 
     95 H95       -54.0596  -32.0613    9.8546 H         1 UNK         0.0813 
     96 H96       -56.4500  -29.3783   10.4113 H         1 UNK         0.0638 
     97 H97       -56.5218  -29.3567   12.1406 H         1 UNK         0.0638 
     98 H98       -54.7931  -27.4616   10.4671 H         1 UNK         0.0568 
     99 H99       -57.5763  -24.9048   11.2703 H         1 UNK         0.3450 
    100 H100      -56.1099  -25.1821   12.1766 H         1 UNK         0.3450 
    101 H101      -53.8326  -26.7296   12.2508 H         1 UNK         0.2987 
    102 H102      -53.1346  -26.8006   14.4388 H         1 UNK         0.0766 
    103 H103      -53.7543  -24.6158   15.5776 H         1 UNK         0.0798 
    104 H104      -55.4281  -24.8436   15.0782 H         1 UNK         0.0798 
    105 H105      -54.1649  -24.6085   13.8723 H         1 UNK         0.0798 
    106 H106      -55.3134  -27.5509   16.2262 H         1 UNK         0.3198 
    107 H107      -54.9970  -27.7044   18.4998 H         1 UNK         0.0843 
    108 H108      -53.8659  -29.7309   19.4739 H         1 UNK         0.0831 
    109 H109      -52.5097  -29.5124   18.3680 H         1 UNK         0.0831 
    110 H110      -54.1050  -29.9052   17.7422 H         1 UNK         0.0831 
    111 H111      -52.2024  -27.2188   19.4325 H         1 UNK         0.3133 
    112 H112      -53.0868  -24.1575   20.9046 H         1 UNK         0.0566 
    113 H113      -51.7804  -25.0312   22.8252 H         1 UNK         0.0814 
    114 H114      -53.3838  -25.7446   22.8107 H         1 UNK         0.0814 
    115 H115      -52.0060  -26.6883   22.2627 H         1 UNK         0.0814 
    116 H116      -50.5924  -25.5169   20.5725 H         1 UNK         0.3091 
    117 H117      -49.4487  -23.4819   18.2968 H         1 UNK         0.0702 
    118 H118      -48.6554  -24.8998   20.1948 H         1 UNK         0.0785 
    119 H119      -49.0132  -26.3647   19.2721 H         1 UNK         0.0785 
    120 H120      -47.7568  -25.2577   18.7390 H         1 UNK         0.0785 
    121 H121      -50.5897  -25.7254   16.8068 H         1 UNK         0.2998 
    122 H122      -48.0560  -25.7477   14.4111 H         1 UNK         0.0697 
    123 H123      -50.9306  -26.6603   14.8006 H         1 UNK         0.0825 
    124 H124      -49.5617  -27.4200   15.6121 H         1 UNK         0.0825 
    125 H125      -49.6730  -27.4396   13.8635 H         1 UNK         0.0825 
    126 H126      -48.9726  -24.6777   12.7304 H         1 UNK         0.3029 
    127 H127      -52.1321  -23.0755   12.1725 H         1 UNK         0.0897 
    128 H128      -49.2030  -22.2415   11.8276 H         1 UNK         0.0792 
    129 H129      -50.4194  -21.3424   12.7235 H         1 UNK         0.0792 
    130 H130      -50.5864  -21.5453   10.9863 H         1 UNK         0.0792 
    131 H131      -50.2281  -23.9499   10.2875 H         1 UNK         0.3086 
    132 H132      -51.6448  -27.2124    9.6823 H         1 UNK         0.0583 
    133 H133      -51.4951  -24.5625    8.1487 H         1 UNK         0.1020 
    134 H134      -51.3674  -26.1158    7.3886 H         1 UNK         0.1020 
    135 H135      -54.9542  -26.9820    6.6235 H         1 UNK         0.0694 
    136 H136      -53.3873  -26.6260    5.9397 H         1 UNK         0.0694 
    137 H137      -49.2897  -25.9425    8.6882 H         1 UNK         0.2989 
    138 H138      -47.0754  -27.0898   11.2236 H         1 UNK         0.1055 
    139 H139      -47.2219  -29.0136    9.5807 H         1 UNK         0.0806 
    140 H140      -45.7818  -28.0269    9.3866 H         1 UNK         0.0806 
    141 H141      -47.1241  -27.8520    8.2636 H         1 UNK         0.0806 
    142 H142      -46.8248  -25.5336    8.7764 H         1 UNK         0.3061 
    143 H143      -47.1941  -22.3749   10.3654 H         1 UNK         0.0734 
    144 H144      -44.9171  -22.0180    9.4470 H         1 UNK         0.0832 
    145 H145      -44.8378  -23.0181   10.8869 H         1 UNK         0.0832 
    146 H146      -44.6703  -23.7591    9.3019 H         1 UNK         0.0832 
    147 H147      -46.4816  -23.1244    7.7005 H         1 UNK         0.3156 
    148 H148      -49.7960  -23.4516    6.4213 H         1 UNK         0.0589 
    149 H149      -47.6331  -21.3195    5.9910 H         1 UNK         0.0808 
    150 H150      -48.9511  -21.7066    4.8843 H         1 UNK         0.0808 
    151 H151      -49.2991  -21.0010    6.4528 H         1 UNK         0.0808 
    152 H152      -47.3184  -23.6572    5.0891 H         1 UNK         0.3098 
    153 H153      -46.8919  -25.8086    4.1820 H         1 UNK         0.0720 
    154 H154      -44.7297  -26.6395    5.1754 H         1 UNK         0.0791 
    155 H155      -45.3792  -26.4344    6.7991 H         1 UNK         0.0791 
    156 H156      -45.0938  -25.0317    5.7751 H         1 UNK         0.0791 
    157 H157      -47.9106  -27.8062    6.0076 H         1 UNK         0.3028 
@<TRIPOS>BOND
     1    1    2 1    
     2    1   82 1    
     3    1   83 1    
     4    1   84 1    
     5    2    3 2    
     6    2    4 am   BACKBONE|DICT|INTERRES
     7    4    5 1    
     8    4   85 1    
     9    5    6 1    
    10    5   80 1    
    11    5   86 1    
    12    6    7 1    
    13    6   87 1    
    14    6   88 1    
    15    7    8 1    
    16    8    9 1    
    17    8   89 1    
    18    8   90 1    
    19    9   10 ar   
    20    9   14 ar   
    21   10   11 ar   
    22   10   91 1    
    23   11   12 ar   
    24   11   58 1    
    25   12   13 ar   
    26   12   92 1    
    27   13   14 ar   
    28   13   15 1    
    29   14   93 1    
    30   15   16 1    
    31   15   94 1    
    32   15   95 1    
    33   16   17 1    
    34   17   18 1    
    35   17   96 1    
    36   17   97 1    
    37   18   19 1    
    38   18   22 1    
    39   18   98 1    
    40   19   20 am   BACKBONE|DICT|INTERRES
    41   19   21 2    
    42   20   99 1    
    43   20  100 1    
    44   22   23 am   BACKBONE|DICT|INTERRES
    45   22  101 1    
    46   23   24 2    
    47   23   25 1    
    48   25   26 1    
    49   25   27 1    
    50   25  102 1    
    51   26  103 1    
    52   26  104 1    
    53   26  105 1    
    54   27   28 am   BACKBONE|DICT|INTERRES
    55   27  106 1    
    56   28   29 2    
    57   28   30 1    
    58   30   31 1    
    59   30   32 1    
    60   30  107 1    
    61   31  108 1    
    62   31  109 1    
    63   31  110 1    
    64   32   33 am   BACKBONE|DICT|INTERRES
    65   32  111 1    
    66   33   34 2    
    67   33   35 1    
    68   35   36 1    
    69   35   37 1    
    70   35  112 1    
    71   36  113 1    
    72   36  114 1    
    73   36  115 1    
    74   37   38 am   BACKBONE|DICT|INTERRES
    75   37  116 1    
    76   38   39 2    
    77   38   40 1    
    78   40   41 1    
    79   40   42 1    
    80   40  117 1    
    81   41  118 1    
    82   41  119 1    
    83   41  120 1    
    84   42   43 am   BACKBONE|DICT|INTERRES
    85   42  121 1    
    86   43   44 2    
    87   43   45 1    
    88   45   46 1    
    89   45   47 1    
    90   45  122 1    
    91   46  123 1    
    92   46  124 1    
    93   46  125 1    
    94   47   48 am   BACKBONE|DICT|INTERRES
    95   47  126 1    
    96   48   49 2    
    97   48   50 1    
    98   50   51 1    
    99   50   52 1    
   100   50  127 1    
   101   51  128 1    
   102   51  129 1    
   103   51  130 1    
   104   52   53 am   BACKBONE|DICT|INTERRES
   105   52  131 1    
   106   53   54 2    
   107   53   55 1    
   108   55   56 1    
   109   55   59 1    
   110   55  132 1    
   111   56   57 1    
   112   56  133 1    
   113   56  134 1    
   114   57   58 1    
   115   58  135 1    
   116   58  136 1    
   117   59   60 am   BACKBONE|DICT|INTERRES
   118   59  137 1    
   119   60   61 2    
   120   60   62 1    
   121   62   63 1    
   122   62   64 1    
   123   62  138 1    
   124   63  139 1    
   125   63  140 1    
   126   63  141 1    
   127   64   65 am   BACKBONE|DICT|INTERRES
   128   64  142 1    
   129   65   66 2    
   130   65   67 1    
   131   67   68 1    
   132   67   69 1    
   133   67  143 1    
   134   68  144 1    
   135   68  145 1    
   136   68  146 1    
   137   69   70 am   BACKBONE|DICT|INTERRES
   138   69  147 1    
   139   70   71 2    
   140   70   72 1    
   141   72   73 1    
   142   72   74 1    
   143   72  148 1    
   144   73  149 1    
   145   73  150 1    
   146   73  151 1    
   147   74   75 am   BACKBONE|DICT|INTERRES
   148   74  152 1    
   149   75   76 2    
   150   75   77 1    
   151   77   78 1    
   152   77   79 1    
   153   77  153 1    
   154   78  154 1    
   155   78  155 1    
   156   78  156 1    
   157   79   80 am   BACKBONE|DICT|INTERRES
   158   79  157 1    
   159   80   81 2    
@<TRIPOS>SUBSTRUCTURE
     1 UNK         1 GROUP             0       ****    0 ROOT    
