@<TRIPOS>MOLECULE
3R207
157   159    1
SMALL
USER_CHARGES


@<TRIPOS>ATOM
      1 CA        -49.7807  -29.5975    9.2686 C.3       0 UNK        -0.1975 
      2 C         -49.2443  -29.7308    7.8528 C.2       0 UNK         0.4852 
      3 O         -48.0941  -30.1316    7.6745 O.2       0 UNK        -0.5216 
      4 N         -50.0577  -29.3874    6.8425 N.am      1 UNK        -0.4461 
      5 CA        -49.6672  -29.4231    5.4244 C.3       1 UNK         0.0864 
      6 C6        -50.8754  -29.6676    4.4790 C.3       14 UNK        -0.0898 
      7 S7        -52.0664  -28.2873    4.3387 S.3       14 UNK        -0.2598 
      8 C8        -53.5875  -29.0098    5.0394 C.3       14 UNK         0.0286 
      9 C9        -53.4786  -29.1552    6.5477 C.ar      14 UNK        -0.0844 
     10 C10       -53.3788  -28.0132    7.3424 C.ar      14 UNK        -0.0881 
     11 C11       -53.1659  -28.1196    8.7177 C.ar      14 UNK        -0.0643 
     12 C12       -53.1107  -29.3865    9.3081 C.ar      14 UNK        -0.0930 
     13 C13       -53.2601  -30.5395    8.5289 C.ar      14 UNK        -0.0827 
     14 C14       -53.4381  -30.4165    7.1468 C.ar      14 UNK        -0.1249 
     15 C15       -53.1807  -31.9228    9.1607 C.3       14 UNK         0.0141 
     16 S16       -54.6606  -32.3133   10.1480 S.3       14 UNK        -0.2313 
     17 C17       -54.1002  -31.9328   11.8436 C.3       14 UNK        -0.0915 
     18 CA        -55.0977  -31.0429   12.6286 C.3       13 UNK         0.0968 
     19 C         -54.6834  -30.9516   14.1280 C.2       13 UNK         0.5732 
     20 N         -54.2450  -29.8060   14.6393 N.am      13 UNK        -0.7310 
     21 O         -54.7683  -31.9461   14.8447 O.2       13 UNK        -0.5035 
     22 N         -55.2930  -29.7377   11.9812 N.am      13 UNK        -0.4233 
     23 C         -56.3200  -28.9206   12.2294 C.2       13 UNK         0.4989 
     24 O         -57.3004  -29.2218   12.9139 O.2       13 UNK        -0.4996 
     25 CA        -56.2016  -27.4957   11.6666 C.3       12 UNK         0.0216 
     26 CB        -57.4029  -27.1378   10.7762 C.3       12 UNK        -0.1964 
     27 N         -56.0993  -26.5413   12.7719 N.am      12 UNK        -0.4276 
     28 C         -55.0557  -26.4697   13.6083 C.2       12 UNK         0.5020 
     29 O         -54.0042  -27.1003   13.4548 O.2       12 UNK        -0.5489 
     30 CA        -55.2454  -25.6068   14.8589 C.3       11 UNK         0.0294 
     31 CB        -56.0320  -26.3954   15.9261 C.3       11 UNK        -0.2019 
     32 N         -53.9296  -25.2315   15.3668 N.am      11 UNK        -0.4493 
     33 C         -53.6763  -24.3199   16.3134 C.2       11 UNK         0.4932 
     34 O         -54.5565  -23.6648   16.8741 O.2       11 UNK        -0.5029 
     35 CA        -52.2009  -24.0624   16.6789 C.3       10 UNK         0.0280 
     36 CB        -51.9985  -23.7619   18.1791 C.3       10 UNK        -0.1976 
     37 N         -51.2791  -25.1021   16.2102 N.am      10 UNK        -0.4242 
     38 C         -51.1487  -26.3663   16.6371 C.2       10 UNK         0.5072 
     39 O         -51.8162  -26.8686   17.5417 O.2       10 UNK        -0.5224 
     40 CA        -50.0863  -27.2217   15.9207 C.3       9 UNK         0.0343 
     41 CB        -50.7122  -27.9580   14.7242 C.3       9 UNK        -0.2003 
     42 N         -48.9293  -26.4431   15.4630 N.am      9 UNK        -0.4272 
     43 C         -48.0325  -25.8586   16.2726 C.2       9 UNK         0.4988 
     44 O         -48.0359  -25.9784   17.4984 O.2       9 UNK        -0.5108 
     45 CA        -46.9607  -24.9740   15.6091 C.3       8 UNK         0.0248 
     46 CB        -45.8092  -25.8265   15.0520 C.3       8 UNK        -0.2001 
     47 N         -47.5066  -24.1173   14.5522 N.am      8 UNK        -0.4140 
     48 C         -48.3640  -23.1070   14.7648 C.2       8 UNK         0.5028 
     49 O         -48.7258  -22.7374   15.8820 O.2       8 UNK        -0.5428 
     50 CA        -48.9488  -22.4094   13.5244 C.3       7 UNK         0.0264 
     51 CB        -47.9974  -21.3180   13.0093 C.3       7 UNK        -0.1988 
     52 N         -49.2691  -23.3443   12.4423 N.am      7 UNK        -0.4454 
     53 C         -50.1940  -24.3122   12.5279 C.2       7 UNK         0.5027 
     54 O         -50.9213  -24.4700   13.5066 O.2       7 UNK        -0.5083 
     55 CA        -50.3029  -25.2999   11.3519 C.3       6 UNK         0.0844 
     56 C56       -51.2418  -24.7425   10.2592 C.3       14 UNK        -0.0967 
     57 S57       -51.4962  -25.9466    8.9227 S.3       14 UNK        -0.2604 
     58 C58       -52.9427  -26.8609    9.5406 C.3       14 UNK         0.0134 
     59 N         -48.9841  -25.6919   10.8426 N.am      6 UNK        -0.4116 
     60 C         -48.0723  -26.3715   11.5526 C.2       5 UNK         0.5034 
     61 O         -48.2728  -26.8024   12.6873 O.2       5 UNK        -0.5045 
     62 CA        -46.6805  -26.5413   10.9254 C.3       5 UNK         0.0224 
     63 CB        -46.6260  -27.7535    9.9849 C.3       5 UNK        -0.1978 
     64 N         -46.2625  -25.3365   10.2089 N.am      5 UNK        -0.4737 
     65 C         -45.8927  -24.1996   10.8134 C.2       4 UNK         0.5027 
     66 O         -45.8235  -24.0695   12.0354 O.2       4 UNK        -0.5211 
     67 CA        -45.5858  -22.9991    9.9022 C.3       4 UNK         0.0297 
     68 CB        -44.1251  -23.0428    9.4271 C.3       4 UNK        -0.1993 
     69 N         -46.4788  -22.9217    8.7419 N.am      4 UNK        -0.4486 
     70 C         -47.7955  -22.6837    8.8193 C.2       3 UNK         0.4961 
     71 O         -48.3920  -22.4751    9.8747 O.2       3 UNK        -0.5105 
     72 CA        -48.5927  -22.7292    7.5047 C.3       3 UNK         0.0299 
     73 CB        -48.5459  -21.3643    6.8001 C.3       3 UNK        -0.1972 
     74 N         -48.1698  -23.7819    6.5724 N.am      3 UNK        -0.4305 
     75 C         -48.1459  -25.0910    6.8562 C.2       2 UNK         0.5006 
     76 O         -48.3655  -25.5587    7.9758 O.2       2 UNK        -0.5106 
     77 CA        -47.7847  -26.0424    5.7143 C.3       2 UNK         0.0296 
     78 CB        -46.2776  -26.3602    5.7343 C.3       2 UNK        -0.2002 
     79 N         -48.5689  -27.2580    5.9000 N.am      2 UNK        -0.4032 
     80 C         -48.7889  -28.2205    4.9951 C.2       1 UNK         0.5000 
     81 O         -48.3218  -28.1946    3.8541 O.2       1 UNK        -0.5238 
     82 H82       -48.9691  -29.6145    9.9939 H         1 UNK         0.0889 
     83 H83       -50.4458  -30.4274    9.4983 H         1 UNK         0.0889 
     84 H84       -50.3206  -28.6608    9.3969 H         1 UNK         0.0889 
     85 H85       -51.0032  -29.0768    7.0314 H         1 UNK         0.3028 
     86 H86       -49.0200  -30.2940    5.2977 H         1 UNK         0.0864 
     87 H87       -51.4022  -30.5703    4.7917 H         1 UNK         0.0720 
     88 H88       -50.5132  -29.8860    3.4727 H         1 UNK         0.0720 
     89 H89       -53.7955  -29.9681    4.5610 H         1 UNK         0.0814 
     90 H90       -54.4307  -28.3591    4.8036 H         1 UNK         0.0814 
     91 H91       -53.4047  -27.0358    6.8792 H         1 UNK         0.1469 
     92 H92       -52.9184  -29.4786   10.3669 H         1 UNK         0.1381 
     93 H93       -53.5226  -31.3034    6.5336 H         1 UNK         0.1206 
     94 H94       -53.0860  -32.6838    8.3845 H         1 UNK         0.0813 
     95 H95       -52.2782  -32.0109    9.7658 H         1 UNK         0.0813 
     96 H96       -53.1170  -31.4604   11.8212 H         1 UNK         0.0638 
     97 H97       -53.9614  -32.8896   12.3506 H         1 UNK         0.0638 
     98 H98       -56.0620  -31.5548   12.6213 H         1 UNK         0.0568 
     99 H99       -53.9887  -29.7785   15.6124 H         1 UNK         0.3450 
    100 H100      -54.1607  -28.9682   14.0734 H         1 UNK         0.3450 
    101 H101      -54.5287  -29.4044   11.4171 H         1 UNK         0.2987 
    102 H102      -55.2975  -27.4211   11.0613 H         1 UNK         0.0766 
    103 H103      -57.2998  -26.1380   10.3541 H         1 UNK         0.0798 
    104 H104      -58.3436  -27.1751   11.3272 H         1 UNK         0.0798 
    105 H105      -57.4867  -27.8342    9.9407 H         1 UNK         0.0798 
    106 H106      -56.9372  -26.0239   12.9962 H         1 UNK         0.3198 
    107 H107      -55.7899  -24.7007   14.5850 H         1 UNK         0.0843 
    108 H108      -55.4861  -27.2828   16.2494 H         1 UNK         0.0831 
    109 H109      -56.9962  -26.7297   15.5411 H         1 UNK         0.0831 
    110 H110      -56.2352  -25.7894   16.8088 H         1 UNK         0.0831 
    111 H111      -53.1603  -25.7107   14.9128 H         1 UNK         0.3133 
    112 H112      -51.9166  -23.1638   16.1296 H         1 UNK         0.0566 
    113 H113      -50.9486  -23.5751   18.4060 H         1 UNK         0.0814 
    114 H114      -52.5563  -22.8742   18.4793 H         1 UNK         0.0814 
    115 H115      -52.3385  -24.5849   18.8080 H         1 UNK         0.0814 
    116 H116      -50.7538  -24.8434   15.3791 H         1 UNK         0.3091 
    117 H117      -49.7275  -27.9685   16.6319 H         1 UNK         0.0702 
    118 H118      -49.9890  -28.6119   14.2368 H         1 UNK         0.0785 
    119 H119      -51.0921  -27.2629   13.9748 H         1 UNK         0.0785 
    120 H120      -51.5498  -28.5797   15.0427 H         1 UNK         0.0785 
    121 H121      -48.7991  -26.3672   14.4571 H         1 UNK         0.2998 
    122 H122      -46.5487  -24.3207   16.3812 H         1 UNK         0.0697 
    123 H123      -46.1487  -26.5138   14.2775 H         1 UNK         0.0825 
    124 H124      -45.3529  -26.4261   15.8408 H         1 UNK         0.0825 
    125 H125      -45.0247  -25.2022   14.6237 H         1 UNK         0.0825 
    126 H126      -47.2020  -24.3060   13.6030 H         1 UNK         0.3029 
    127 H127      -49.8810  -21.9286   13.8290 H         1 UNK         0.0897 
    128 H128      -48.4365  -20.7712   12.1746 H         1 UNK         0.0792 
    129 H129      -47.7766  -20.5920   13.7928 H         1 UNK         0.0792 
    130 H130      -47.0477  -21.7340   12.6731 H         1 UNK         0.0792 
    131 H131      -48.7708  -23.2165   11.5639 H         1 UNK         0.3086 
    132 H132      -50.7660  -26.2056   11.7493 H         1 UNK         0.0583 
    133 H133      -52.2117  -24.4678   10.6794 H         1 UNK         0.1020 
    134 H134      -50.8287  -23.8311    9.8238 H         1 UNK         0.1020 
    135 H135      -52.7941  -27.1080   10.5931 H         1 UNK         0.0694 
    136 H136      -53.8258  -26.2231    9.4836 H         1 UNK         0.0694 
    137 H137      -48.7659  -25.4319    9.8847 H         1 UNK         0.2989 
    138 H138      -45.9724  -26.7165   11.7385 H         1 UNK         0.1055 
    139 H139      -46.8545  -28.6722   10.5258 H         1 UNK         0.0806 
    140 H140      -45.6331  -27.8760    9.5521 H         1 UNK         0.0806 
    141 H141      -47.3381  -27.6679    9.1645 H         1 UNK         0.0806 
    142 H142      -46.3745  -25.3406    9.2045 H         1 UNK         0.3061 
    143 H143      -45.7248  -22.0917   10.4939 H         1 UNK         0.0734 
    144 H144      -43.8687  -22.1556    8.8478 H         1 UNK         0.0832 
    145 H145      -43.4415  -23.0810   10.2766 H         1 UNK         0.0832 
    146 H146      -43.9248  -23.9189    8.8089 H         1 UNK         0.0832 
    147 H147      -46.0724  -23.0843    7.8321 H         1 UNK         0.3156 
    148 H148      -49.6323  -22.9363    7.7670 H         1 UNK         0.0589 
    149 H149      -47.5379  -21.1139    6.4670 H         1 UNK         0.0808 
    150 H150      -48.8746  -20.5682    7.4700 H         1 UNK         0.0808 
    151 H151      -49.2030  -21.3429    5.9305 H         1 UNK         0.0808 
    152 H152      -47.9527  -23.4877    5.6306 H         1 UNK         0.3098 
    153 H153      -48.0584  -25.5852    4.7613 H         1 UNK         0.0720 
    154 H154      -45.6828  -25.4515    5.6341 H         1 UNK         0.0791 
    155 H155      -45.9975  -27.0194    4.9126 H         1 UNK         0.0791 
    156 H156      -45.9824  -26.8455    6.6658 H         1 UNK         0.0791 
    157 H157      -48.9993  -27.3332    6.8135 H         1 UNK         0.3028 
@<TRIPOS>BOND
     1    1    2 1    
     2    1   82 1    
     3    1   83 1    
     4    1   84 1    
     5    2    3 2    
     6    2    4 am   BACKBONE|DICT|INTERRES
     7    4    5 1    
     8    4   85 1    
     9    5    6 1    
    10    5   80 1    
    11    5   86 1    
    12    6    7 1    
    13    6   87 1    
    14    6   88 1    
    15    7    8 1    
    16    8    9 1    
    17    8   89 1    
    18    8   90 1    
    19    9   10 ar   
    20    9   14 ar   
    21   10   11 ar   
    22   10   91 1    
    23   11   12 ar   
    24   11   58 1    
    25   12   13 ar   
    26   12   92 1    
    27   13   14 ar   
    28   13   15 1    
    29   14   93 1    
    30   15   16 1    
    31   15   94 1    
    32   15   95 1    
    33   16   17 1    
    34   17   18 1    
    35   17   96 1    
    36   17   97 1    
    37   18   19 1    
    38   18   22 1    
    39   18   98 1    
    40   19   20 am   BACKBONE|DICT|INTERRES
    41   19   21 2    
    42   20   99 1    
    43   20  100 1    
    44   22   23 am   BACKBONE|DICT|INTERRES
    45   22  101 1    
    46   23   24 2    
    47   23   25 1    
    48   25   26 1    
    49   25   27 1    
    50   25  102 1    
    51   26  103 1    
    52   26  104 1    
    53   26  105 1    
    54   27   28 am   BACKBONE|DICT|INTERRES
    55   27  106 1    
    56   28   29 2    
    57   28   30 1    
    58   30   31 1    
    59   30   32 1    
    60   30  107 1    
    61   31  108 1    
    62   31  109 1    
    63   31  110 1    
    64   32   33 am   BACKBONE|DICT|INTERRES
    65   32  111 1    
    66   33   34 2    
    67   33   35 1    
    68   35   36 1    
    69   35   37 1    
    70   35  112 1    
    71   36  113 1    
    72   36  114 1    
    73   36  115 1    
    74   37   38 am   BACKBONE|DICT|INTERRES
    75   37  116 1    
    76   38   39 2    
    77   38   40 1    
    78   40   41 1    
    79   40   42 1    
    80   40  117 1    
    81   41  118 1    
    82   41  119 1    
    83   41  120 1    
    84   42   43 am   BACKBONE|DICT|INTERRES
    85   42  121 1    
    86   43   44 2    
    87   43   45 1    
    88   45   46 1    
    89   45   47 1    
    90   45  122 1    
    91   46  123 1    
    92   46  124 1    
    93   46  125 1    
    94   47   48 am   BACKBONE|DICT|INTERRES
    95   47  126 1    
    96   48   49 2    
    97   48   50 1    
    98   50   51 1    
    99   50   52 1    
   100   50  127 1    
   101   51  128 1    
   102   51  129 1    
   103   51  130 1    
   104   52   53 am   BACKBONE|DICT|INTERRES
   105   52  131 1    
   106   53   54 2    
   107   53   55 1    
   108   55   56 1    
   109   55   59 1    
   110   55  132 1    
   111   56   57 1    
   112   56  133 1    
   113   56  134 1    
   114   57   58 1    
   115   58  135 1    
   116   58  136 1    
   117   59   60 am   BACKBONE|DICT|INTERRES
   118   59  137 1    
   119   60   61 2    
   120   60   62 1    
   121   62   63 1    
   122   62   64 1    
   123   62  138 1    
   124   63  139 1    
   125   63  140 1    
   126   63  141 1    
   127   64   65 am   BACKBONE|DICT|INTERRES
   128   64  142 1    
   129   65   66 2    
   130   65   67 1    
   131   67   68 1    
   132   67   69 1    
   133   67  143 1    
   134   68  144 1    
   135   68  145 1    
   136   68  146 1    
   137   69   70 am   BACKBONE|DICT|INTERRES
   138   69  147 1    
   139   70   71 2    
   140   70   72 1    
   141   72   73 1    
   142   72   74 1    
   143   72  148 1    
   144   73  149 1    
   145   73  150 1    
   146   73  151 1    
   147   74   75 am   BACKBONE|DICT|INTERRES
   148   74  152 1    
   149   75   76 2    
   150   75   77 1    
   151   77   78 1    
   152   77   79 1    
   153   77  153 1    
   154   78  154 1    
   155   78  155 1    
   156   78  156 1    
   157   79   80 am   BACKBONE|DICT|INTERRES
   158   79  157 1    
   159   80   81 2    
@<TRIPOS>SUBSTRUCTURE
     1 UNK         1 GROUP             0       ****    0 ROOT    
