@<TRIPOS>MOLECULE
3R207
157   159    1
SMALL
USER_CHARGES


@<TRIPOS>ATOM
      1 CA        -51.0784  -30.6981   10.5764 C.3       0 UNK        -0.1975 
      2 C         -50.3435  -29.7767    9.6167 C.2       0 UNK         0.4852 
      3 O         -49.3787  -29.1269   10.0169 O.2       0 UNK        -0.5216 
      4 N         -50.7729  -29.7296    8.3450 N.am      1 UNK        -0.4461 
      5 CA        -50.2683  -28.8339    7.2873 C.3       1 UNK         0.0864 
      6 C6        -50.6547  -27.3521    7.5659 C.3       14 UNK        -0.0898 
      7 S7        -50.9781  -26.3893    6.0513 S.3       14 UNK        -0.2598 
      8 C8        -52.7981  -26.4203    5.9662 C.3       14 UNK         0.0286 
      9 C9        -53.4531  -25.6026    7.0730 C.ar      14 UNK        -0.0844 
     10 C10       -53.3358  -24.2100    7.0824 C.ar      14 UNK        -0.0881 
     11 C11       -53.9655  -23.4487    8.0714 C.ar      14 UNK        -0.0643 
     12 C12       -54.7081  -24.0940    9.0666 C.ar      14 UNK        -0.0930 
     13 C13       -54.8519  -25.4868    9.0584 C.ar      14 UNK        -0.0827 
     14 C14       -54.2181  -26.2332    8.0591 C.ar      14 UNK        -0.1249 
     15 C15       -55.7529  -26.1704   10.0832 C.3       14 UNK         0.0141 
     16 S16       -54.8191  -27.0076   11.4046 S.3       14 UNK        -0.2313 
     17 C17       -54.4931  -28.6493   10.6819 C.3       14 UNK        -0.0915 
     18 CA        -55.0706  -29.8180   11.5293 C.3       13 UNK         0.0968 
     19 C         -55.2613  -31.0774   10.6270 C.2       13 UNK         0.5732 
     20 N         -54.4760  -32.1382   10.7761 N.am      13 UNK        -0.7310 
     21 O         -56.1446  -31.0884    9.7730 O.2       13 UNK        -0.5035 
     22 N         -54.2917  -30.0473   12.7650 N.am      13 UNK        -0.4233 
     23 C         -54.6403  -30.9125   13.7304 C.2       13 UNK         0.4989 
     24 O         -55.7310  -31.4831   13.7699 O.2       13 UNK        -0.4996 
     25 CA        -53.5980  -31.2467   14.8081 C.3       12 UNK         0.0216 
     26 CB        -52.4679  -32.1193   14.2327 C.3       12 UNK        -0.1964 
     27 N         -53.0289  -30.0572   15.4404 N.am      12 UNK        -0.4276 
     28 C         -52.8033  -29.9310   16.7577 C.2       12 UNK         0.5020 
     29 O         -53.0572  -30.8127   17.5805 O.2       12 UNK        -0.5489 
     30 CA        -52.1837  -28.6118   17.2665 C.3       11 UNK         0.0294 
     31 CB        -50.6894  -28.8044   17.5708 C.3       11 UNK        -0.2019 
     32 N         -52.3366  -27.4938   16.3358 N.am      11 UNK        -0.4493 
     33 C         -53.5089  -26.9446   15.9902 C.2       11 UNK         0.4932 
     34 O         -54.5744  -27.2149   16.5450 O.2       11 UNK        -0.5029 
     35 CA        -53.5155  -25.9587   14.8081 C.3       10 UNK         0.0280 
     36 CB        -53.7085  -24.5217   15.3201 C.3       10 UNK        -0.1976 
     37 N         -52.3392  -26.0030   13.9280 N.am      10 UNK        -0.4242 
     38 C         -51.8214  -27.0763   13.3075 C.2       10 UNK         0.5072 
     39 O         -52.2609  -28.2227   13.4156 O.2       10 UNK        -0.5224 
     40 CA        -50.5684  -26.8422   12.4521 C.3       9 UNK         0.0343 
     41 CB        -50.9770  -26.4110   11.0377 C.3       9 UNK        -0.2003 
     42 N         -49.6480  -25.8530   13.0183 N.am      9 UNK        -0.4272 
     43 C         -49.0624  -25.9327   14.2234 C.2       9 UNK         0.4988 
     44 O         -49.2239  -26.8678   15.0083 O.2       9 UNK        -0.5108 
     45 CA        -48.1776  -24.7469   14.6359 C.3       8 UNK         0.0248 
     46 CB        -46.7921  -24.8281   13.9755 C.3       8 UNK        -0.2001 
     47 N         -48.8154  -23.4760   14.2928 N.am      8 UNK        -0.4140 
     48 C         -49.7564  -22.8814   15.0397 C.2       8 UNK         0.5028 
     49 O         -50.1120  -23.2870   16.1465 O.2       8 UNK        -0.5428 
     50 CA        -50.4269  -21.6257   14.4530 C.3       7 UNK         0.0264 
     51 CB        -49.6859  -20.3579   14.9076 C.3       7 UNK        -0.1988 
     52 N         -50.5180  -21.6357   12.9896 N.am      7 UNK        -0.4454 
     53 C         -51.2580  -22.5005   12.2788 C.2       7 UNK         0.5027 
     54 O         -51.9494  -23.3814   12.7860 O.2       7 UNK        -0.5083 
     55 CA        -51.1783  -22.3910   10.7427 C.3       6 UNK         0.0844 
     56 C56       -52.2274  -21.3789   10.2265 C.3       14 UNK        -0.0967 
     57 S57       -52.2542  -21.2692    8.4058 S.3       14 UNK        -0.2604 
     58 C58       -53.9044  -21.9279    8.0092 C.3       14 UNK         0.0134 
     59 N         -49.8219  -22.0938   10.2621 N.am      6 UNK        -0.4116 
     60 C         -48.7389  -22.8467   10.4948 C.2       5 UNK         0.5034 
     61 O         -48.7367  -23.8501   11.2116 O.2       5 UNK        -0.5045 
     62 CA        -47.4211  -22.3819    9.8641 C.3       5 UNK         0.0224 
     63 CB        -46.4413  -21.9040   10.9483 C.3       5 UNK        -0.1978 
     64 N         -46.8151  -23.4808    9.1168 N.am      5 UNK        -0.4737 
     65 C         -47.2045  -23.8816    7.9025 C.2       4 UNK         0.5027 
     66 O         -48.0663  -23.3016    7.2420 O.2       4 UNK        -0.5211 
     67 CA        -46.5203  -25.1280    7.3145 C.3       4 UNK         0.0297 
     68 CB        -45.1208  -24.7915    6.7640 C.3       4 UNK        -0.1993 
     69 N         -46.4843  -26.2926    8.2103 N.am      4 UNK        -0.4486 
     70 C         -45.8184  -26.4611    9.3650 C.2       3 UNK         0.4961 
     71 O         -45.1118  -25.5935    9.8800 O.2       3 UNK        -0.5105 
     72 CA        -45.9651  -27.8154   10.0885 C.3       3 UNK         0.0299 
     73 CB        -46.8092  -27.6467   11.3613 C.3       3 UNK        -0.1972 
     74 N         -46.5608  -28.8628    9.2549 N.am      3 UNK        -0.4305 
     75 C         -45.9234  -29.4976    8.2570 C.2       2 UNK         0.5006 
     76 O         -44.7285  -29.3384    8.0053 O.2       2 UNK        -0.5106 
     77 CA        -46.7492  -30.4489    7.3639 C.3       2 UNK         0.0296 
     78 CB        -46.5230  -31.9102    7.7845 C.3       2 UNK        -0.2002 
     79 N         -48.1889  -30.1692    7.3584 N.am      2 UNK        -0.4032 
     80 C         -48.7559  -29.0101    6.9884 C.2       1 UNK         0.5000 
     81 O         -48.1115  -28.0868    6.4879 O.2       1 UNK        -0.5238 
     82 H82       -50.3946  -31.4476   10.9735 H         1 UNK         0.0889 
     83 H83       -51.9048  -31.2135   10.0892 H         1 UNK         0.0889 
     84 H84       -51.4740  -30.1222   11.4121 H         1 UNK         0.0889 
     85 H85       -51.5477  -30.3179    8.0695 H         1 UNK         0.3028 
     86 H86       -50.7822  -29.1550    6.3799 H         1 UNK         0.0864 
     87 H87       -49.8821  -26.8434    8.1449 H         1 UNK         0.0720 
     88 H88       -51.5505  -27.3073    8.1848 H         1 UNK         0.0720 
     89 H89       -53.1394  -27.4565    5.9907 H         1 UNK         0.0814 
     90 H90       -53.1101  -26.0212    5.0001 H         1 UNK         0.0814 
     91 H91       -52.7640  -23.7155    6.3087 H         1 UNK         0.1469 
     92 H92       -55.2095  -23.5081    9.8246 H         1 UNK         0.1381 
     93 H93       -54.3350  -27.3062    8.0321 H         1 UNK         0.1206 
     94 H94       -56.4076  -25.4334   10.5505 H         1 UNK         0.0813 
     95 H95       -56.4171  -26.8780    9.5851 H         1 UNK         0.0813 
     96 H96       -54.9180  -28.6633    9.6783 H         1 UNK         0.0638 
     97 H97       -53.4173  -28.7646   10.5484 H         1 UNK         0.0638 
     98 H98       -56.0775  -29.5363   11.8430 H         1 UNK         0.0568 
     99 H99       -54.6241  -32.9423   10.1872 H         1 UNK         0.3450 
    100 H100      -53.7631  -32.1561   11.4849 H         1 UNK         0.3450 
    101 H101      -53.4228  -29.5262   12.8470 H         1 UNK         0.2987 
    102 H102      -54.1235  -31.8404   15.5596 H         1 UNK         0.0766 
    103 H103      -52.8674  -33.0016   13.7309 H         1 UNK         0.0798 
    104 H104      -51.8045  -32.4720   15.0227 H         1 UNK         0.0798 
    105 H105      -51.8607  -31.5728   13.5105 H         1 UNK         0.0798 
    106 H106      -52.7867  -29.2833   14.8233 H         1 UNK         0.3198 
    107 H107      -52.6939  -28.3484   18.1955 H         1 UNK         0.0843 
    108 H108      -50.1258  -29.0614   16.6726 H         1 UNK         0.0831 
    109 H109      -50.5375  -29.6080   18.2928 H         1 UNK         0.0831 
    110 H110      -50.2496  -27.9013   17.9944 H         1 UNK         0.0831 
    111 H111      -51.5076  -27.2110   15.8280 H         1 UNK         0.3133 
    112 H112      -54.3809  -26.2168   14.1970 H         1 UNK         0.0566 
    113 H113      -53.9095  -23.8327   14.5001 H         1 UNK         0.0814 
    114 H114      -52.8272  -24.1634   15.8536 H         1 UNK         0.0814 
    115 H115      -54.5554  -24.4552   16.0045 H         1 UNK         0.0814 
    116 H116      -51.9443  -25.0978   13.6868 H         1 UNK         0.3091 
    117 H117      -50.0278  -27.7882   12.3837 H         1 UNK         0.0702 
    118 H118      -50.1058  -26.2238   10.4109 H         1 UNK         0.0785 
    119 H119      -51.5886  -25.5103   11.0506 H         1 UNK         0.0785 
    120 H120      -51.5700  -27.1873   10.5562 H         1 UNK         0.0785 
    121 H121      -49.4125  -25.0661   12.4175 H         1 UNK         0.2998 
    122 H122      -48.0350  -24.7940   15.7179 H         1 UNK         0.0697 
    123 H123      -46.8545  -24.7892   12.8877 H         1 UNK         0.0825 
    124 H124      -46.2898  -25.7587   14.2423 H         1 UNK         0.0825 
    125 H125      -46.1499  -24.0100   14.3018 H         1 UNK         0.0825 
    126 H126      -48.6194  -23.1045   13.3735 H         1 UNK         0.3029 
    127 H127      -51.4445  -21.5882   14.8488 H         1 UNK         0.0897 
    128 H128      -48.6658  -20.3246   14.5226 H         1 UNK         0.0792 
    129 H129      -49.6247  -20.3119   15.9960 H         1 UNK         0.0792 
    130 H130      -50.2011  -19.4560   14.5765 H         1 UNK         0.0792 
    131 H131      -49.9788  -20.9411   12.4932 H         1 UNK         0.3086 
    132 H132      -51.4426  -23.3682   10.3358 H         1 UNK         0.0583 
    133 H133      -53.2222  -21.6501   10.5860 H         1 UNK         0.1020 
    134 H134      -52.0284  -20.3806   10.6212 H         1 UNK         0.1020 
    135 H135      -54.6495  -21.4762    8.6659 H         1 UNK         0.0694 
    136 H136      -54.1666  -21.6098    6.9991 H         1 UNK         0.0694 
    137 H137      -49.7426  -21.2983    9.6453 H         1 UNK         0.2989 
    138 H138      -47.6149  -21.5520    9.1806 H         1 UNK         0.1055 
    139 H139      -45.5126  -21.5403   10.5080 H         1 UNK         0.0806 
    140 H140      -46.1873  -22.7028   11.6463 H         1 UNK         0.0806 
    141 H141      -46.8668  -21.0844   11.5288 H         1 UNK         0.0806 
    142 H142      -46.1320  -24.0596    9.6004 H         1 UNK         0.3061 
    143 H143      -47.1322  -25.4419    6.4669 H         1 UNK         0.0734 
    144 H144      -44.4403  -24.4584    7.5480 H         1 UNK         0.0832 
    145 H145      -44.6708  -25.6548    6.2738 H         1 UNK         0.0832 
    146 H146      -45.1775  -23.9914    6.0248 H         1 UNK         0.0832 
    147 H147      -47.0442  -27.0716    7.8774 H         1 UNK         0.3156 
    148 H148      -44.9662  -28.1416   10.3851 H         1 UNK         0.0589 
    149 H149      -46.9708  -28.5985   11.8675 H         1 UNK         0.0808 
    150 H150      -46.3094  -26.9857   12.0680 H         1 UNK         0.0808 
    151 H151      -47.7857  -27.2134   11.1417 H         1 UNK         0.0808 
    152 H152      -47.5473  -29.0531    9.4195 H         1 UNK         0.3098 
    153 H153      -46.3882  -30.3253    6.3408 H         1 UNK         0.0720 
    154 H154      -45.4612  -32.1608    7.7697 H         1 UNK         0.0791 
    155 H155      -47.0256  -32.6016    7.1079 H         1 UNK         0.0791 
    156 H156      -46.8884  -32.1004    8.7946 H         1 UNK         0.0791 
    157 H157      -48.7866  -30.8715    7.7691 H         1 UNK         0.3028 
@<TRIPOS>BOND
     1    1    2 1    
     2    1   82 1    
     3    1   83 1    
     4    1   84 1    
     5    2    3 2    
     6    2    4 am   BACKBONE|DICT|INTERRES
     7    4    5 1    
     8    4   85 1    
     9    5    6 1    
    10    5   80 1    
    11    5   86 1    
    12    6    7 1    
    13    6   87 1    
    14    6   88 1    
    15    7    8 1    
    16    8    9 1    
    17    8   89 1    
    18    8   90 1    
    19    9   10 ar   
    20    9   14 ar   
    21   10   11 ar   
    22   10   91 1    
    23   11   12 ar   
    24   11   58 1    
    25   12   13 ar   
    26   12   92 1    
    27   13   14 ar   
    28   13   15 1    
    29   14   93 1    
    30   15   16 1    
    31   15   94 1    
    32   15   95 1    
    33   16   17 1    
    34   17   18 1    
    35   17   96 1    
    36   17   97 1    
    37   18   19 1    
    38   18   22 1    
    39   18   98 1    
    40   19   20 am   BACKBONE|DICT|INTERRES
    41   19   21 2    
    42   20   99 1    
    43   20  100 1    
    44   22   23 am   BACKBONE|DICT|INTERRES
    45   22  101 1    
    46   23   24 2    
    47   23   25 1    
    48   25   26 1    
    49   25   27 1    
    50   25  102 1    
    51   26  103 1    
    52   26  104 1    
    53   26  105 1    
    54   27   28 am   BACKBONE|DICT|INTERRES
    55   27  106 1    
    56   28   29 2    
    57   28   30 1    
    58   30   31 1    
    59   30   32 1    
    60   30  107 1    
    61   31  108 1    
    62   31  109 1    
    63   31  110 1    
    64   32   33 am   BACKBONE|DICT|INTERRES
    65   32  111 1    
    66   33   34 2    
    67   33   35 1    
    68   35   36 1    
    69   35   37 1    
    70   35  112 1    
    71   36  113 1    
    72   36  114 1    
    73   36  115 1    
    74   37   38 am   BACKBONE|DICT|INTERRES
    75   37  116 1    
    76   38   39 2    
    77   38   40 1    
    78   40   41 1    
    79   40   42 1    
    80   40  117 1    
    81   41  118 1    
    82   41  119 1    
    83   41  120 1    
    84   42   43 am   BACKBONE|DICT|INTERRES
    85   42  121 1    
    86   43   44 2    
    87   43   45 1    
    88   45   46 1    
    89   45   47 1    
    90   45  122 1    
    91   46  123 1    
    92   46  124 1    
    93   46  125 1    
    94   47   48 am   BACKBONE|DICT|INTERRES
    95   47  126 1    
    96   48   49 2    
    97   48   50 1    
    98   50   51 1    
    99   50   52 1    
   100   50  127 1    
   101   51  128 1    
   102   51  129 1    
   103   51  130 1    
   104   52   53 am   BACKBONE|DICT|INTERRES
   105   52  131 1    
   106   53   54 2    
   107   53   55 1    
   108   55   56 1    
   109   55   59 1    
   110   55  132 1    
   111   56   57 1    
   112   56  133 1    
   113   56  134 1    
   114   57   58 1    
   115   58  135 1    
   116   58  136 1    
   117   59   60 am   BACKBONE|DICT|INTERRES
   118   59  137 1    
   119   60   61 2    
   120   60   62 1    
   121   62   63 1    
   122   62   64 1    
   123   62  138 1    
   124   63  139 1    
   125   63  140 1    
   126   63  141 1    
   127   64   65 am   BACKBONE|DICT|INTERRES
   128   64  142 1    
   129   65   66 2    
   130   65   67 1    
   131   67   68 1    
   132   67   69 1    
   133   67  143 1    
   134   68  144 1    
   135   68  145 1    
   136   68  146 1    
   137   69   70 am   BACKBONE|DICT|INTERRES
   138   69  147 1    
   139   70   71 2    
   140   70   72 1    
   141   72   73 1    
   142   72   74 1    
   143   72  148 1    
   144   73  149 1    
   145   73  150 1    
   146   73  151 1    
   147   74   75 am   BACKBONE|DICT|INTERRES
   148   74  152 1    
   149   75   76 2    
   150   75   77 1    
   151   77   78 1    
   152   77   79 1    
   153   77  153 1    
   154   78  154 1    
   155   78  155 1    
   156   78  156 1    
   157   79   80 am   BACKBONE|DICT|INTERRES
   158   79  157 1    
   159   80   81 2    
@<TRIPOS>SUBSTRUCTURE
     1 UNK         1 GROUP             0       ****    0 ROOT    
