@<TRIPOS>MOLECULE
3R207
157   159    1
SMALL
USER_CHARGES


@<TRIPOS>ATOM
      1 CA        -52.0890  -30.5876    2.5731 C.3       0 UNK        -0.1975 
      2 C         -51.7853  -29.5762    3.6687 C.2       0 UNK         0.4852 
      3 O         -52.6103  -28.7026    3.9403 O.2       0 UNK        -0.5216 
      4 N         -50.6125  -29.6931    4.3047 N.am      1 UNK        -0.4461 
      5 CA        -50.1293  -28.7867    5.3502 C.3       1 UNK         0.0864 
      6 C6        -48.8956  -29.3729    6.0850 C.3       14 UNK        -0.0898 
      7 S7        -49.3077  -30.8636    7.0603 S.3       14 UNK        -0.2598 
      8 C8        -48.8992  -30.3525    8.7659 C.3       14 UNK         0.0286 
      9 C9        -50.0508  -29.6384    9.4676 C.ar      14 UNK        -0.0844 
     10 C10       -50.5515  -28.4335    8.9678 C.ar      14 UNK        -0.0881 
     11 C11       -51.6256  -27.7883    9.5843 C.ar      14 UNK        -0.0643 
     12 C12       -52.1731  -28.3345   10.7451 C.ar      14 UNK        -0.0930 
     13 C13       -51.6696  -29.5247   11.2773 C.ar      14 UNK        -0.0827 
     14 C14       -50.6124  -30.1751   10.6317 C.ar      14 UNK        -0.1249 
     15 C15       -52.2626  -30.0936   12.5583 C.3       14 UNK         0.0141 
     16 S16       -53.1749  -31.6503   12.3124 S.3       14 UNK        -0.2313 
     17 C17       -54.3751  -31.2645   10.9865 C.3       14 UNK        -0.0915 
     18 CA        -55.7204  -30.6177   11.4220 C.3       13 UNK         0.0968 
     19 C         -56.4345  -31.3529   12.5946 C.2       13 UNK         0.5732 
     20 N         -56.7464  -30.6901   13.7024 N.am      13 UNK        -0.7310 
     21 O         -56.7298  -32.5409   12.4866 O.2       13 UNK        -0.5035 
     22 N         -55.5994  -29.1585   11.5797 N.am      13 UNK        -0.4233 
     23 C         -56.5863  -28.2918   11.3206 C.2       13 UNK         0.4989 
     24 O         -57.7212  -28.6272   10.9762 O.2       13 UNK        -0.4996 
     25 CA        -56.2495  -26.8009   11.4877 C.3       12 UNK         0.0216 
     26 CB        -57.2393  -25.8861   10.7415 C.3       12 UNK        -0.1964 
     27 N         -56.2360  -26.4321   12.9024 N.am      12 UNK        -0.4276 
     28 C         -55.1816  -26.5766   13.7099 C.2       12 UNK         0.5020 
     29 O         -54.1050  -27.0606   13.3531 O.2       12 UNK        -0.5489 
     30 CA        -55.3578  -26.1287   15.1614 C.3       11 UNK         0.0294 
     31 CB        -55.7796  -27.3112   16.0522 C.3       11 UNK        -0.2019 
     32 N         -54.0795  -25.5902   15.6060 N.am      11 UNK        -0.4493 
     33 C         -53.8858  -24.7506   16.6287 C.2       11 UNK         0.4932 
     34 O         -54.7949  -24.3352   17.3495 O.2       11 UNK        -0.5029 
     35 CA        -52.4364  -24.2826   16.8709 C.3       10 UNK         0.0280 
     36 CB        -52.1793  -23.8281   18.3232 C.3       10 UNK        -0.1976 
     37 N         -51.4344  -25.2617   16.4350 N.am      10 UNK        -0.4242 
     38 C         -51.2239  -26.4939   16.9234 C.2       10 UNK         0.5072 
     39 O         -51.8442  -26.9855   17.8670 O.2       10 UNK        -0.5224 
     40 CA        -50.1357  -27.3278   16.2270 C.3       9 UNK         0.0343 
     41 CB        -50.7301  -28.0707   15.0204 C.3       9 UNK        -0.2003 
     42 N         -48.9925  -26.5218   15.7911 N.am      9 UNK        -0.4272 
     43 C         -48.1133  -25.9410   16.6220 C.2       9 UNK         0.4988 
     44 O         -48.1200  -26.0932   17.8442 O.2       9 UNK        -0.5108 
     45 CA        -47.0588  -25.0172   15.9873 C.3       8 UNK         0.0248 
     46 CB        -45.9049  -25.8355   15.3869 C.3       8 UNK        -0.2001 
     47 N         -47.6256  -24.1308   14.9677 N.am      8 UNK        -0.4140 
     48 C         -48.5268  -23.1675   15.2131 C.2       8 UNK         0.5028 
     49 O         -48.9288  -22.8704   16.3380 O.2       8 UNK        -0.5428 
     50 CA        -49.1016  -22.4254   13.9967 C.3       7 UNK         0.0264 
     51 CB        -48.1956  -21.2522   13.5893 C.3       7 UNK        -0.1988 
     52 N         -49.3084  -23.3110   12.8499 N.am      7 UNK        -0.4454 
     53 C         -50.2535  -24.2608   12.7821 C.2       7 UNK         0.5027 
     54 O         -51.0719  -24.4779   13.6763 O.2       7 UNK        -0.5083 
     55 CA        -50.2589  -25.1301   11.5094 C.3       6 UNK         0.0844 
     56 C56       -50.9925  -24.3833   10.3648 C.3       14 UNK        -0.0967 
     57 S57       -50.9610  -25.2272    8.7475 S.3       14 UNK        -0.2604 
     58 C58       -52.2143  -26.5242    8.9742 C.3       14 UNK         0.0134 
     59 N         -48.9020  -25.5558   11.1520 N.am      6 UNK        -0.4116 
     60 C         -48.1395  -26.3642   11.9064 C.2       5 UNK         0.5034 
     61 O         -48.5086  -26.8555   12.9718 O.2       5 UNK        -0.5045 
     62 CA        -46.6993  -26.6331   11.4323 C.3       5 UNK         0.0224 
     63 CB        -46.6709  -27.8513   10.4986 C.3       5 UNK        -0.1978 
     64 N         -46.0790  -25.4958   10.7515 N.am      5 UNK        -0.4737 
     65 C         -45.9553  -24.2552   11.2439 C.2       4 UNK         0.5027 
     66 O         -46.2390  -23.9508   12.4022 O.2       4 UNK        -0.5211 
     67 CA        -45.5070  -23.1574   10.2578 C.3       4 UNK         0.0297 
     68 CB        -44.0230  -22.8224   10.4724 C.3       4 UNK        -0.1993 
     69 N         -45.7350  -23.4838    8.8400 N.am      4 UNK        -0.4486 
     70 C         -46.9224  -23.7917    8.2967 C.2       3 UNK         0.4961 
     71 O         -47.9771  -23.8088    8.9356 O.2       3 UNK        -0.5105 
     72 CA        -46.9175  -24.2133    6.8210 C.3       3 UNK         0.0299 
     73 CB        -46.0256  -25.4503    6.5869 C.3       3 UNK        -0.1972 
     74 N         -48.2843  -24.5249    6.4112 N.am      3 UNK        -0.4305 
     75 C         -48.7604  -24.4595    5.1637 C.2       2 UNK         0.5006 
     76 O         -48.0969  -24.0854    4.1941 O.2       2 UNK        -0.5106 
     77 CA        -50.2181  -24.9233    4.9819 C.3       2 UNK         0.0296 
     78 CB        -50.7775  -24.6302    3.5726 C.3       2 UNK        -0.2002 
     79 N         -50.3895  -26.3415    5.3316 N.am      2 UNK        -0.4032 
     80 C         -49.8002  -27.4019    4.7530 C.2       1 UNK         0.5000 
     81 O         -49.0192  -27.3353    3.8004 O.2       1 UNK        -0.5238 
     82 H82       -51.2811  -31.3085    2.4481 H         1 UNK         0.0889 
     83 H83       -52.2377  -30.0766    1.6222 H         1 UNK         0.0889 
     84 H84       -52.9994  -31.1368    2.8115 H         1 UNK         0.0889 
     85 H85       -49.9707  -30.4244    4.0345 H         1 UNK         0.3028 
     86 H86       -50.9413  -28.6683    6.0703 H         1 UNK         0.0864 
     87 H87       -48.1193  -29.6428    5.3663 H         1 UNK         0.0720 
     88 H88       -48.4360  -28.6281    6.7367 H         1 UNK         0.0720 
     89 H89       -48.0119  -29.7212    8.7613 H         1 UNK         0.0814 
     90 H90       -48.6218  -31.2480    9.3240 H         1 UNK         0.0814 
     91 H91       -50.1116  -27.9888    8.0917 H         1 UNK         0.1469 
     92 H92       -52.9898  -27.8267   11.2342 H         1 UNK         0.1381 
     93 H93       -50.2301  -31.1004   11.0406 H         1 UNK         0.1206 
     94 H94       -51.4534  -30.2840   13.2636 H         1 UNK         0.0813 
     95 H95       -52.9184  -29.3708   13.0430 H         1 UNK         0.0813 
     96 H96       -54.5927  -32.2149   10.4964 H         1 UNK         0.0638 
     97 H97       -53.8948  -30.6621   10.2149 H         1 UNK         0.0638 
     98 H98       -56.3898  -30.7733   10.5734 H         1 UNK         0.0568 
     99 H99       -56.5166  -29.7152   13.7941 H         1 UNK         0.3450 
    100 H100      -57.2155  -31.1748   14.4507 H         1 UNK         0.3450 
    101 H101      -54.7251  -28.8093   11.9468 H         1 UNK         0.2987 
    102 H102      -55.2607  -26.6308   11.0555 H         1 UNK         0.0766 
    103 H103      -56.9423  -24.8397   10.8140 H         1 UNK         0.0798 
    104 H104      -58.2532  -25.9740   11.1345 H         1 UNK         0.0798 
    105 H105      -57.2781  -26.1373    9.6806 H         1 UNK         0.0798 
    106 H106      -57.0990  -26.0680   13.2815 H         1 UNK         0.3198 
    107 H107      -56.1136  -25.3413   15.2059 H         1 UNK         0.0843 
    108 H108      -56.7293  -27.7332   15.7215 H         1 UNK         0.0831 
    109 H109      -55.9081  -27.0021   17.0896 H         1 UNK         0.0831 
    110 H110      -55.0388  -28.1119   16.0328 H         1 UNK         0.0831 
    111 H111      -53.2948  -25.8583   15.0227 H         1 UNK         0.3133 
    112 H112      -52.2929  -23.4129   16.2282 H         1 UNK         0.0566 
    113 H113      -51.1485  -23.4988   18.4562 H         1 UNK         0.0814 
    114 H114      -52.8234  -22.9897   18.5907 H         1 UNK         0.0814 
    115 H115      -52.3728  -24.6270   19.0395 H         1 UNK         0.0814 
    116 H116      -50.9218  -24.9945   15.6000 H         1 UNK         0.3091 
    117 H117      -49.7745  -28.0703   16.9417 H         1 UNK         0.0702 
    118 H118      -49.9916  -28.7262   14.5587 H         1 UNK         0.0785 
    119 H119      -51.0877  -27.3815   14.2534 H         1 UNK         0.0785 
    120 H120      -51.5757  -28.6905   15.3217 H         1 UNK         0.0785 
    121 H121      -48.8688  -26.4162   14.7870 H         1 UNK         0.2998 
    122 H122      -46.6489  -24.3857   16.7784 H         1 UNK         0.0697 
    123 H123      -46.2576  -26.5313   14.6266 H         1 UNK         0.0825 
    124 H124      -45.4058  -26.4243   16.1575 H         1 UNK         0.0825 
    125 H125      -45.1529  -25.1910   14.9311 H         1 UNK         0.0825 
    126 H126      -47.2888  -24.2446   14.0152 H         1 UNK         0.3029 
    127 H127      -50.0729  -22.0189   14.2882 H         1 UNK         0.0897 
    128 H128      -48.6286  -20.6834   12.7663 H         1 UNK         0.0792 
    129 H129      -48.0578  -20.5613   14.4222 H         1 UNK         0.0792 
    130 H130      -47.2056  -21.5894   13.2805 H         1 UNK         0.0792 
    131 H131      -48.6435  -23.2362   12.0927 H         1 UNK         0.3086 
    132 H132      -50.8274  -26.0318   11.7426 H         1 UNK         0.0583 
    133 H133      -52.0320  -24.1950   10.6407 H         1 UNK         0.1020 
    134 H134      -50.5453  -23.3994   10.2077 H         1 UNK         0.1020 
    135 H135      -53.0398  -26.1389    9.5747 H         1 UNK         0.0694 
    136 H136      -52.6376  -26.7758    8.0011 H         1 UNK         0.0694 
    137 H137      -48.5201  -25.1531   10.3021 H         1 UNK         0.2989 
    138 H138      -46.0968  -26.8585   12.3135 H         1 UNK         0.1055 
    139 H139      -47.1351  -28.7173   10.9734 H         1 UNK         0.0806 
    140 H140      -45.6500  -28.1329   10.2401 H         1 UNK         0.0806 
    141 H141      -47.2124  -27.6545    9.5727 H         1 UNK         0.0806 
    142 H142      -45.8048  -25.6407    9.7915 H         1 UNK         0.3061 
    143 H143      -46.0959  -22.2665   10.4858 H         1 UNK         0.0734 
    144 H144      -43.8312  -22.5514   11.5119 H         1 UNK         0.0832 
    145 H145      -43.3786  -23.6693   10.2332 H         1 UNK         0.0832 
    146 H146      -43.7122  -21.9770    9.8583 H         1 UNK         0.0832 
    147 H147      -44.9181  -23.4910    8.2457 H         1 UNK         0.3156 
    148 H148      -46.5437  -23.3709    6.2355 H         1 UNK         0.0589 
    149 H149      -46.3502  -26.3001    7.1891 H         1 UNK         0.0808 
    150 H150      -46.0468  -25.7606    5.5419 H         1 UNK         0.0808 
    151 H151      -44.9829  -25.2494    6.8343 H         1 UNK         0.0808 
    152 H152      -48.9084  -24.7436    7.1801 H         1 UNK         0.3098 
    153 H153      -50.8176  -24.3521    5.6926 H         1 UNK         0.0720 
    154 H154      -51.8214  -24.9327    3.4906 H         1 UNK         0.0791 
    155 H155      -50.2175  -25.1484    2.7934 H         1 UNK         0.0791 
    156 H156      -50.7297  -23.5636    3.3500 H         1 UNK         0.0791 
    157 H157      -51.0168  -26.5113    6.1045 H         1 UNK         0.3028 
@<TRIPOS>BOND
     1    1    2 1    
     2    1   82 1    
     3    1   83 1    
     4    1   84 1    
     5    2    3 2    
     6    2    4 am   BACKBONE|DICT|INTERRES
     7    4    5 1    
     8    4   85 1    
     9    5    6 1    
    10    5   80 1    
    11    5   86 1    
    12    6    7 1    
    13    6   87 1    
    14    6   88 1    
    15    7    8 1    
    16    8    9 1    
    17    8   89 1    
    18    8   90 1    
    19    9   10 ar   
    20    9   14 ar   
    21   10   11 ar   
    22   10   91 1    
    23   11   12 ar   
    24   11   58 1    
    25   12   13 ar   
    26   12   92 1    
    27   13   14 ar   
    28   13   15 1    
    29   14   93 1    
    30   15   16 1    
    31   15   94 1    
    32   15   95 1    
    33   16   17 1    
    34   17   18 1    
    35   17   96 1    
    36   17   97 1    
    37   18   19 1    
    38   18   22 1    
    39   18   98 1    
    40   19   20 am   BACKBONE|DICT|INTERRES
    41   19   21 2    
    42   20   99 1    
    43   20  100 1    
    44   22   23 am   BACKBONE|DICT|INTERRES
    45   22  101 1    
    46   23   24 2    
    47   23   25 1    
    48   25   26 1    
    49   25   27 1    
    50   25  102 1    
    51   26  103 1    
    52   26  104 1    
    53   26  105 1    
    54   27   28 am   BACKBONE|DICT|INTERRES
    55   27  106 1    
    56   28   29 2    
    57   28   30 1    
    58   30   31 1    
    59   30   32 1    
    60   30  107 1    
    61   31  108 1    
    62   31  109 1    
    63   31  110 1    
    64   32   33 am   BACKBONE|DICT|INTERRES
    65   32  111 1    
    66   33   34 2    
    67   33   35 1    
    68   35   36 1    
    69   35   37 1    
    70   35  112 1    
    71   36  113 1    
    72   36  114 1    
    73   36  115 1    
    74   37   38 am   BACKBONE|DICT|INTERRES
    75   37  116 1    
    76   38   39 2    
    77   38   40 1    
    78   40   41 1    
    79   40   42 1    
    80   40  117 1    
    81   41  118 1    
    82   41  119 1    
    83   41  120 1    
    84   42   43 am   BACKBONE|DICT|INTERRES
    85   42  121 1    
    86   43   44 2    
    87   43   45 1    
    88   45   46 1    
    89   45   47 1    
    90   45  122 1    
    91   46  123 1    
    92   46  124 1    
    93   46  125 1    
    94   47   48 am   BACKBONE|DICT|INTERRES
    95   47  126 1    
    96   48   49 2    
    97   48   50 1    
    98   50   51 1    
    99   50   52 1    
   100   50  127 1    
   101   51  128 1    
   102   51  129 1    
   103   51  130 1    
   104   52   53 am   BACKBONE|DICT|INTERRES
   105   52  131 1    
   106   53   54 2    
   107   53   55 1    
   108   55   56 1    
   109   55   59 1    
   110   55  132 1    
   111   56   57 1    
   112   56  133 1    
   113   56  134 1    
   114   57   58 1    
   115   58  135 1    
   116   58  136 1    
   117   59   60 am   BACKBONE|DICT|INTERRES
   118   59  137 1    
   119   60   61 2    
   120   60   62 1    
   121   62   63 1    
   122   62   64 1    
   123   62  138 1    
   124   63  139 1    
   125   63  140 1    
   126   63  141 1    
   127   64   65 am   BACKBONE|DICT|INTERRES
   128   64  142 1    
   129   65   66 2    
   130   65   67 1    
   131   67   68 1    
   132   67   69 1    
   133   67  143 1    
   134   68  144 1    
   135   68  145 1    
   136   68  146 1    
   137   69   70 am   BACKBONE|DICT|INTERRES
   138   69  147 1    
   139   70   71 2    
   140   70   72 1    
   141   72   73 1    
   142   72   74 1    
   143   72  148 1    
   144   73  149 1    
   145   73  150 1    
   146   73  151 1    
   147   74   75 am   BACKBONE|DICT|INTERRES
   148   74  152 1    
   149   75   76 2    
   150   75   77 1    
   151   77   78 1    
   152   77   79 1    
   153   77  153 1    
   154   78  154 1    
   155   78  155 1    
   156   78  156 1    
   157   79   80 am   BACKBONE|DICT|INTERRES
   158   79  157 1    
   159   80   81 2    
@<TRIPOS>SUBSTRUCTURE
     1 UNK         1 GROUP             0       ****    0 ROOT    
