@<TRIPOS>MOLECULE
3R207
157   159    1
SMALL
USER_CHARGES


@<TRIPOS>ATOM
      1 CA        -46.4972  -27.3135    4.2938 C.3       0 UNK        -0.1975 
      2 C         -47.9200  -26.9459    4.6853 C.2       0 UNK         0.4852 
      3 O         -48.4326  -25.9211    4.2311 O.2       0 UNK        -0.5216 
      4 N         -48.5605  -27.7671    5.5302 N.am      1 UNK        -0.4461 
      5 CA        -49.9110  -27.5514    6.0636 C.3       1 UNK         0.0864 
      6 C6        -50.3651  -28.7113    6.9795 C.3       14 UNK        -0.0898 
      7 S7        -50.6679  -30.2468    6.0418 S.3       14 UNK        -0.2598 
      8 C8        -50.1457  -31.5394    7.2231 C.3       14 UNK         0.0286 
      9 C9        -50.7208  -31.3604    8.6263 C.ar      14 UNK        -0.0844 
     10 C10       -49.8770  -31.4635    9.7370 C.ar      14 UNK        -0.0881 
     11 C11       -50.3653  -31.2481   11.0323 C.ar      14 UNK        -0.0643 
     12 C12       -51.7229  -30.9677   11.2054 C.ar      14 UNK        -0.0930 
     13 C13       -52.5821  -30.8784   10.1088 C.ar      14 UNK        -0.0827 
     14 C14       -52.0786  -31.0840    8.8220 C.ar      14 UNK        -0.1249 
     15 C15       -54.0496  -30.5462   10.3201 C.3       14 UNK         0.0141 
     16 S16       -54.2885  -28.7528   10.5039 S.3       14 UNK        -0.2313 
     17 C17       -56.1074  -28.6526   10.6394 C.3       14 UNK        -0.0915 
     18 CA        -56.6227  -28.1661   12.0264 C.3       13 UNK         0.0968 
     19 C         -56.4741  -29.1829   13.1928 C.2       13 UNK         0.5732 
     20 N         -56.6653  -30.4714   12.9405 N.am      13 UNK        -0.7310 
     21 O         -56.2485  -28.8186   14.3445 O.2       13 UNK        -0.5035 
     22 N         -56.1009  -26.8376   12.3713 N.am      13 UNK        -0.4233 
     23 C         -56.6185  -25.6804   11.9434 C.2       13 UNK         0.4989 
     24 O         -57.6203  -25.6137   11.2276 O.2       13 UNK        -0.4996 
     25 CA        -55.8963  -24.3748   12.3389 C.3       12 UNK         0.0216 
     26 CB        -56.8602  -23.1749   12.4633 C.3       12 UNK        -0.1964 
     27 N         -55.0451  -24.4849   13.5273 N.am      12 UNK        -0.4276 
     28 C         -55.4143  -24.7628   14.7847 C.2       12 UNK         0.5020 
     29 O         -56.5752  -24.9668   15.1469 O.2       12 UNK        -0.5489 
     30 CA        -54.2682  -24.8263   15.8106 C.3       11 UNK         0.0294 
     31 CB        -54.6717  -24.1746   17.1450 C.3       11 UNK        -0.2019 
     32 N         -53.7615  -26.1762   16.0790 N.am      11 UNK        -0.4493 
     33 C         -53.4521  -27.1351   15.1935 C.2       11 UNK         0.4932 
     34 O         -53.6559  -27.0719   13.9809 O.2       11 UNK        -0.5029 
     35 CA        -52.6816  -28.3294   15.7722 C.3       10 UNK         0.0280 
     36 CB        -52.6897  -29.5500   14.8351 C.3       10 UNK        -0.1976 
     37 N         -51.3038  -27.8874   15.9657 N.am      10 UNK        -0.4242 
     38 C         -50.8177  -27.3505   17.0914 C.2       10 UNK         0.5072 
     39 O         -51.4292  -27.3278   18.1607 O.2       10 UNK        -0.5224 
     40 CA        -49.4444  -26.6658   16.9853 C.3       9 UNK         0.0343 
     41 CB        -48.3225  -27.6917   16.7513 C.3       9 UNK        -0.2003 
     42 N         -49.4164  -25.6551   15.9246 N.am      9 UNK        -0.4272 
     43 C         -50.1481  -24.5288   15.9076 C.2       9 UNK         0.4988 
     44 O         -50.8766  -24.1671   16.8313 O.2       9 UNK        -0.5108 
     45 CA        -50.0734  -23.6692   14.6363 C.3       8 UNK         0.0248 
     46 CB        -48.8275  -22.7676   14.6456 C.3       8 UNK        -0.2001 
     47 N         -50.0743  -24.5215   13.4460 N.am      8 UNK        -0.4140 
     48 C         -51.1847  -24.9042   12.7999 C.2       8 UNK         0.5028 
     49 O         -52.2953  -24.4194   13.0219 O.2       8 UNK        -0.5428 
     50 CA        -51.0573  -25.9967   11.7200 C.3       7 UNK         0.0264 
     51 CB        -51.3815  -25.4268   10.3323 C.3       7 UNK        -0.1988 
     52 N         -49.7419  -26.6429   11.6721 N.am      7 UNK        -0.4454 
     53 C         -49.3221  -27.5734   12.5431 C.2       7 UNK         0.5027 
     54 O         -49.9920  -27.9673   13.4955 O.2       7 UNK        -0.5083 
     55 CA        -47.8790  -28.0947   12.3682 C.3       6 UNK         0.0844 
     56 C56       -47.8070  -29.2085   11.2888 C.3       14 UNK        -0.0967 
     57 S57       -47.7137  -30.8862   11.9997 S.3       14 UNK        -0.2604 
     58 C58       -49.4691  -31.3170   12.2690 C.3       14 UNK         0.0134 
     59 N         -46.9254  -27.0159   12.0966 N.am      6 UNK        -0.4116 
     60 C         -46.7380  -25.9211   12.8465 C.2       5 UNK         0.5034 
     61 O         -47.3347  -25.7096   13.9020 O.2       5 UNK        -0.5045 
     62 CA        -45.7516  -24.8649   12.3142 C.3       5 UNK         0.0224 
     63 CB        -44.4357  -24.9146   13.1062 C.3       5 UNK        -0.1978 
     64 N         -45.4612  -24.9934   10.8792 N.am      5 UNK        -0.4737 
     65 C         -46.3560  -24.8012    9.9003 C.2       4 UNK         0.5027 
     66 O         -47.5273  -24.4751   10.1039 O.2       4 UNK        -0.5211 
     67 CA        -45.8646  -25.0996    8.4776 C.3       4 UNK         0.0297 
     68 CB        -45.8836  -26.6161    8.2144 C.3       4 UNK        -0.1993 
     69 N         -46.7254  -24.4433    7.4961 N.am      4 UNK        -0.4486 
     70 C         -46.4116  -23.3207    6.8343 C.2       3 UNK         0.4961 
     71 O         -45.3377  -22.7322    6.9692 O.2       3 UNK        -0.5105 
     72 CA        -47.4382  -22.7517    5.8356 C.3       3 UNK         0.0299 
     73 CB        -46.9088  -22.8629    4.3956 C.3       3 UNK        -0.1972 
     74 N         -48.7453  -23.4068    5.9173 N.am      3 UNK        -0.4305 
     75 C         -49.7047  -23.0677    6.7920 C.2       2 UNK         0.5006 
     76 O         -49.6120  -22.1175    7.5697 O.2       2 UNK        -0.5106 
     77 CA        -50.9876  -23.9229    6.8168 C.3       2 UNK         0.0296 
     78 CB        -52.1100  -23.2264    6.0303 C.3       2 UNK        -0.2002 
     79 N         -50.8229  -25.2887    6.3088 N.am      2 UNK        -0.4032 
     80 C         -49.9904  -26.2094    6.8147 C.2       1 UNK         0.5000 
     81 O         -49.2670  -26.0212    7.7939 O.2       1 UNK        -0.5238 
     82 H82       -46.1639  -28.2301    4.7800 H         1 UNK         0.0889 
     83 H83       -45.8142  -26.5121    4.5746 H         1 UNK         0.0889 
     84 H84       -46.4307  -27.4563    3.2157 H         1 UNK         0.0889 
     85 H85       -48.0920  -28.5951    5.8674 H         1 UNK         0.3028 
     86 H86       -50.5911  -27.5047    5.2102 H         1 UNK         0.0864 
     87 H87       -49.6252  -28.8905    7.7623 H         1 UNK         0.0720 
     88 H88       -51.2960  -28.4611    7.4932 H         1 UNK         0.0720 
     89 H89       -49.0550  -31.5497    7.2540 H         1 UNK         0.0814 
     90 H90       -50.4514  -32.5131    6.8384 H         1 UNK         0.0814 
     91 H91       -48.8313  -31.6931    9.5883 H         1 UNK         0.1469 
     92 H92       -52.1166  -30.8101   12.1986 H         1 UNK         0.1381 
     93 H93       -52.7391  -31.0061    7.9693 H         1 UNK         0.1206 
     94 H94       -54.6436  -30.9095    9.4800 H         1 UNK         0.0813 
     95 H95       -54.4202  -31.0573   11.2096 H         1 UNK         0.0813 
     96 H96       -56.4454  -27.9565    9.8705 H         1 UNK         0.0638 
     97 H97       -56.5578  -29.6077   10.3674 H         1 UNK         0.0638 
     98 H98       -57.7059  -28.0664   11.9387 H         1 UNK         0.0568 
     99 H99       -56.5975  -31.1296   13.7003 H         1 UNK         0.3450 
    100 H100      -56.8975  -30.7952   12.0159 H         1 UNK         0.3450 
    101 H101      -55.2860  -26.8383   12.9823 H         1 UNK         0.2987 
    102 H102      -55.2141  -24.1604   11.5150 H         1 UNK         0.0766 
    103 H103      -56.3249  -22.2607   12.7197 H         1 UNK         0.0798 
    104 H104      -57.6202  -23.3447   13.2267 H         1 UNK         0.0798 
    105 H105      -57.3808  -22.9890   11.5231 H         1 UNK         0.0798 
    106 H106      -54.0398  -24.4271   13.3429 H         1 UNK         0.3198 
    107 H107      -53.4302  -24.2500   15.4145 H         1 UNK         0.0843 
    108 H108      -55.4484  -24.7459   17.6549 H         1 UNK         0.0831 
    109 H109      -55.0591  -23.1674   16.9857 H         1 UNK         0.0831 
    110 H110      -53.8182  -24.0884   17.8181 H         1 UNK         0.0831 
    111 H111      -53.5038  -26.3540   17.0401 H         1 UNK         0.3133 
    112 H112      -53.1349  -28.6219   16.7216 H         1 UNK         0.0566 
    113 H113      -52.1080  -30.3737   15.2482 H         1 UNK         0.0814 
    114 H114      -53.7057  -29.9118   14.6758 H         1 UNK         0.0814 
    115 H115      -52.2749  -29.3029   13.8582 H         1 UNK         0.0814 
    116 H116      -50.7428  -27.8394   15.1148 H         1 UNK         0.3091 
    117 H117      -49.2493  -26.1594   17.9329 H         1 UNK         0.0702 
    118 H118      -47.3434  -27.2121   16.7505 H         1 UNK         0.0785 
    119 H119      -48.4370  -28.2126   15.8002 H         1 UNK         0.0785 
    120 H120      -48.3139  -28.4464   17.5387 H         1 UNK         0.0785 
    121 H121      -48.7839  -25.8310   15.1496 H         1 UNK         0.2998 
    122 H122      -50.9494  -23.0169   14.6211 H         1 UNK         0.0697 
    123 H123      -47.9031  -23.3367   14.7392 H         1 UNK         0.0825 
    124 H124      -48.8624  -22.0728   15.4857 H         1 UNK         0.0825 
    125 H125      -48.7634  -22.1713   13.7353 H         1 UNK         0.0825 
    126 H126      -49.1972  -24.9658   13.2084 H         1 UNK         0.3029 
    127 H127      -51.8059  -26.7579   11.9537 H         1 UNK         0.0897 
    128 H128      -51.4210  -26.2177    9.5834 H         1 UNK         0.0792 
    129 H129      -52.3523  -24.9292   10.3250 H         1 UNK         0.0792 
    130 H130      -50.6325  -24.6985   10.0183 H         1 UNK         0.0792 
    131 H131      -49.1160  -26.3306   10.9399 H         1 UNK         0.3086 
    132 H132      -47.5753  -28.5105   13.3314 H         1 UNK         0.0583 
    133 H133      -48.6215  -29.1409   10.5651 H         1 UNK         0.1020 
    134 H134      -46.9029  -29.0998   10.6876 H         1 UNK         0.1020 
    135 H135      -49.5157  -32.3304   12.6692 H         1 UNK         0.0694 
    136 H136      -49.8609  -30.6628   13.0494 H         1 UNK         0.0694 
    137 H137      -46.3813  -27.0949   11.2518 H         1 UNK         0.2989 
    138 H138      -46.2146  -23.8888   12.4770 H         1 UNK         0.1055 
    139 H139      -44.6187  -24.7929   14.1751 H         1 UNK         0.0806 
    140 H140      -43.7593  -24.1148   12.8040 H         1 UNK         0.0806 
    141 H141      -43.9168  -25.8645   12.9712 H         1 UNK         0.0806 
    142 H142      -44.5185  -25.2612   10.6313 H         1 UNK         0.3061 
    143 H143      -44.8363  -24.7445    8.3824 H         1 UNK         0.0734 
    144 H144      -45.5568  -26.8437    7.2001 H         1 UNK         0.0832 
    145 H145      -45.2110  -27.1437    8.8915 H         1 UNK         0.0832 
    146 H146      -46.8795  -27.0407    8.3466 H         1 UNK         0.0832 
    147 H147      -47.6692  -24.8139    7.4342 H         1 UNK         0.3156 
    148 H148      -47.5577  -21.6902    6.0627 H         1 UNK         0.0589 
    149 H149      -46.7019  -23.8965    4.1176 H         1 UNK         0.0808 
    150 H150      -47.6209  -22.4574    3.6767 H         1 UNK         0.0808 
    151 H151      -45.9789  -22.3049    4.2782 H         1 UNK         0.0808 
    152 H152      -48.8818  -24.2138    5.3156 H         1 UNK         0.3098 
    153 H153      -51.3032  -23.9965    7.8578 H         1 UNK         0.0720 
    154 H154      -52.2801  -22.2157    6.4045 H         1 UNK         0.0791 
    155 H155      -53.0535  -23.7650    6.1215 H         1 UNK         0.0791 
    156 H156      -51.8689  -23.1444    4.9696 H         1 UNK         0.0791 
    157 H157      -51.3541  -25.5223    5.4821 H         1 UNK         0.3028 
@<TRIPOS>BOND
     1    1    2 1    
     2    1   82 1    
     3    1   83 1    
     4    1   84 1    
     5    2    3 2    
     6    2    4 am   BACKBONE|DICT|INTERRES
     7    4    5 1    
     8    4   85 1    
     9    5    6 1    
    10    5   80 1    
    11    5   86 1    
    12    6    7 1    
    13    6   87 1    
    14    6   88 1    
    15    7    8 1    
    16    8    9 1    
    17    8   89 1    
    18    8   90 1    
    19    9   10 ar   
    20    9   14 ar   
    21   10   11 ar   
    22   10   91 1    
    23   11   12 ar   
    24   11   58 1    
    25   12   13 ar   
    26   12   92 1    
    27   13   14 ar   
    28   13   15 1    
    29   14   93 1    
    30   15   16 1    
    31   15   94 1    
    32   15   95 1    
    33   16   17 1    
    34   17   18 1    
    35   17   96 1    
    36   17   97 1    
    37   18   19 1    
    38   18   22 1    
    39   18   98 1    
    40   19   20 am   BACKBONE|DICT|INTERRES
    41   19   21 2    
    42   20   99 1    
    43   20  100 1    
    44   22   23 am   BACKBONE|DICT|INTERRES
    45   22  101 1    
    46   23   24 2    
    47   23   25 1    
    48   25   26 1    
    49   25   27 1    
    50   25  102 1    
    51   26  103 1    
    52   26  104 1    
    53   26  105 1    
    54   27   28 am   BACKBONE|DICT|INTERRES
    55   27  106 1    
    56   28   29 2    
    57   28   30 1    
    58   30   31 1    
    59   30   32 1    
    60   30  107 1    
    61   31  108 1    
    62   31  109 1    
    63   31  110 1    
    64   32   33 am   BACKBONE|DICT|INTERRES
    65   32  111 1    
    66   33   34 2    
    67   33   35 1    
    68   35   36 1    
    69   35   37 1    
    70   35  112 1    
    71   36  113 1    
    72   36  114 1    
    73   36  115 1    
    74   37   38 am   BACKBONE|DICT|INTERRES
    75   37  116 1    
    76   38   39 2    
    77   38   40 1    
    78   40   41 1    
    79   40   42 1    
    80   40  117 1    
    81   41  118 1    
    82   41  119 1    
    83   41  120 1    
    84   42   43 am   BACKBONE|DICT|INTERRES
    85   42  121 1    
    86   43   44 2    
    87   43   45 1    
    88   45   46 1    
    89   45   47 1    
    90   45  122 1    
    91   46  123 1    
    92   46  124 1    
    93   46  125 1    
    94   47   48 am   BACKBONE|DICT|INTERRES
    95   47  126 1    
    96   48   49 2    
    97   48   50 1    
    98   50   51 1    
    99   50   52 1    
   100   50  127 1    
   101   51  128 1    
   102   51  129 1    
   103   51  130 1    
   104   52   53 am   BACKBONE|DICT|INTERRES
   105   52  131 1    
   106   53   54 2    
   107   53   55 1    
   108   55   56 1    
   109   55   59 1    
   110   55  132 1    
   111   56   57 1    
   112   56  133 1    
   113   56  134 1    
   114   57   58 1    
   115   58  135 1    
   116   58  136 1    
   117   59   60 am   BACKBONE|DICT|INTERRES
   118   59  137 1    
   119   60   61 2    
   120   60   62 1    
   121   62   63 1    
   122   62   64 1    
   123   62  138 1    
   124   63  139 1    
   125   63  140 1    
   126   63  141 1    
   127   64   65 am   BACKBONE|DICT|INTERRES
   128   64  142 1    
   129   65   66 2    
   130   65   67 1    
   131   67   68 1    
   132   67   69 1    
   133   67  143 1    
   134   68  144 1    
   135   68  145 1    
   136   68  146 1    
   137   69   70 am   BACKBONE|DICT|INTERRES
   138   69  147 1    
   139   70   71 2    
   140   70   72 1    
   141   72   73 1    
   142   72   74 1    
   143   72  148 1    
   144   73  149 1    
   145   73  150 1    
   146   73  151 1    
   147   74   75 am   BACKBONE|DICT|INTERRES
   148   74  152 1    
   149   75   76 2    
   150   75   77 1    
   151   77   78 1    
   152   77   79 1    
   153   77  153 1    
   154   78  154 1    
   155   78  155 1    
   156   78  156 1    
   157   79   80 am   BACKBONE|DICT|INTERRES
   158   79  157 1    
   159   80   81 2    
@<TRIPOS>SUBSTRUCTURE
     1 UNK         1 GROUP             0       ****    0 ROOT    
