@<TRIPOS>MOLECULE
3R207
157   159    1
SMALL
USER_CHARGES


@<TRIPOS>ATOM
      1 CA        -45.9840  -30.9954    4.7268 C.3       0 UNK        -0.1975 
      2 C         -46.7540  -29.6877    4.8253 C.2       0 UNK         0.4852 
      3 O         -46.3627  -28.8044    5.5879 O.2       0 UNK        -0.5216 
      4 N         -47.8304  -29.5410    4.0368 N.am      1 UNK        -0.4461 
      5 CA        -48.7610  -28.3969    4.0259 C.3       1 UNK         0.0864 
      6 C6        -49.5341  -28.2656    5.3723 C.3       14 UNK        -0.0898 
      7 S7        -51.2906  -27.8243    5.1398 S.3       14 UNK        -0.2598 
      8 C8        -52.1424  -29.1304    6.0837 C.3       14 UNK         0.0286 
      9 C9        -52.1750  -28.8181    7.5737 C.ar      14 UNK        -0.0844 
     10 C10       -51.1223  -29.2098    8.4069 C.ar      14 UNK        -0.0881 
     11 C11       -51.1460  -28.9062    9.7713 C.ar      14 UNK        -0.0643 
     12 C12       -52.2484  -28.2368   10.3089 C.ar      14 UNK        -0.0930 
     13 C13       -53.3129  -27.8501    9.4903 C.ar      14 UNK        -0.0827 
     14 C14       -53.2657  -28.1361    8.1223 C.ar      14 UNK        -0.1249 
     15 C15       -54.5020  -27.0991   10.0722 C.3       14 UNK         0.0141 
     16 S16       -55.9907  -28.1402   10.1614 S.3       14 UNK        -0.2313 
     17 C17       -55.6539  -29.1842   11.6204 C.3       14 UNK        -0.0915 
     18 CA        -56.5430  -28.7814   12.8289 C.3       13 UNK         0.0968 
     19 C         -56.5835  -29.8822   13.9274 C.2       13 UNK         0.5732 
     20 N         -56.4268  -29.5584   15.2035 N.am      13 UNK        -0.7310 
     21 O         -56.7827  -31.0553   13.6207 O.2       13 UNK        -0.5035 
     22 N         -56.1780  -27.4462   13.3351 N.am      13 UNK        -0.4233 
     23 C         -57.0480  -26.4788   13.6449 C.2       13 UNK         0.4989 
     24 O         -58.2729  -26.6068   13.5908 O.2       13 UNK        -0.4996 
     25 CA        -56.4232  -25.1371   14.0699 C.3       12 UNK         0.0216 
     26 CB        -57.4700  -24.0237   14.2919 C.3       12 UNK        -0.1964 
     27 N         -55.5384  -25.2628   15.2343 N.am      12 UNK        -0.4276 
     28 C         -55.8657  -25.6429   16.4780 C.2       12 UNK         0.5020 
     29 O         -56.9882  -26.0185   16.8205 O.2       12 UNK        -0.5489 
     30 CA        -54.7174  -25.5876   17.5009 C.3       11 UNK         0.0294 
     31 CB        -55.1671  -25.8536   18.9541 C.3       11 UNK        -0.2019 
     32 N         -53.6109  -26.4623   17.1032 N.am      11 UNK        -0.4493 
     33 C         -53.6003  -27.8021   17.0441 C.2       11 UNK         0.4932 
     34 O         -54.5337  -28.5184   17.4026 O.2       11 UNK        -0.5029 
     35 CA        -52.3350  -28.4669   16.4715 C.3       10 UNK         0.0280 
     36 CB        -52.5681  -28.8726   15.0061 C.3       10 UNK        -0.1976 
     37 N         -51.1409  -27.6211   16.5505 N.am      10 UNK        -0.4242 
     38 C         -50.4989  -27.2955   17.6820 C.2       10 UNK         0.5072 
     39 O         -50.8122  -27.7142   18.7970 O.2       10 UNK        -0.5224 
     40 CA        -49.3209  -26.3167   17.5461 C.3       9 UNK         0.0343 
     41 CB        -48.0463  -27.0489   17.0943 C.3       9 UNK        -0.2003 
     42 N         -49.6187  -25.2246   16.6165 N.am      9 UNK        -0.4272 
     43 C         -50.4352  -24.1957   16.8878 C.2       9 UNK         0.4988 
     44 O         -50.9930  -24.0289   17.9721 O.2       9 UNK        -0.5108 
     45 CA        -50.6923  -23.1944   15.7489 C.3       8 UNK         0.0248 
     46 CB        -49.5911  -22.1231   15.7081 C.3       8 UNK        -0.2001 
     47 N         -50.7942  -23.8519   14.4441 N.am      8 UNK        -0.4140 
     48 C         -51.8353  -24.6136   14.0747 C.2       8 UNK         0.5028 
     49 O         -52.8392  -24.7797   14.7679 O.2       8 UNK        -0.5428 
     50 CA        -51.7428  -25.3509   12.7286 C.3       7 UNK         0.0264 
     51 CB        -52.3932  -24.5109   11.6199 C.3       7 UNK        -0.1988 
     52 N         -50.3760  -25.7109   12.3395 N.am      7 UNK        -0.4454 
     53 C         -49.5528  -26.4919   13.0606 C.2       7 UNK         0.5027 
     54 O         -49.9072  -27.0624   14.0916 O.2       7 UNK        -0.5083 
     55 CA        -48.0769  -26.6251   12.6150 C.3       6 UNK         0.0844 
     56 C56       -47.7993  -28.0074   11.9721 C.3       14 UNK        -0.0967 
     57 S57       -48.5455  -28.2036   10.3154 S.3       14 UNK        -0.2604 
     58 C58       -49.9713  -29.2807   10.6604 C.3       14 UNK         0.0134 
     59 N         -47.6093  -25.5225   11.7690 N.am      6 UNK        -0.4116 
     60 C         -47.6472  -24.2168   12.0759 C.2       5 UNK         0.5034 
     61 O         -47.9643  -23.7855   13.1853 O.2       5 UNK        -0.5045 
     62 CA        -47.3670  -23.2201   10.9328 C.3       5 UNK         0.0224 
     63 CB        -45.9302  -22.6841   11.0296 C.3       5 UNK        -0.1978 
     64 N         -47.5867  -23.7691    9.5869 N.am      5 UNK        -0.4737 
     65 C         -48.7238  -24.3216    9.1373 C.2       4 UNK         0.5027 
     66 O         -49.7589  -24.3472    9.8017 O.2       4 UNK        -0.5211 
     67 CA        -48.7114  -24.9968    7.7507 C.3       4 UNK         0.0297 
     68 CB        -49.7525  -24.3461    6.8251 C.3       4 UNK        -0.1993 
     69 N         -47.4109  -25.0320    7.0652 N.am      4 UNK        -0.4486 
     70 C         -46.3130  -25.6840    7.4769 C.2       3 UNK         0.4961 
     71 O         -46.2435  -26.2973    8.5422 O.2       3 UNK        -0.5105 
     72 CA        -45.0934  -25.6126    6.5432 C.3       3 UNK         0.0299 
     73 CB        -43.9171  -26.4768    7.0348 C.3       3 UNK        -0.1972 
     74 N         -45.4820  -26.0593    5.2074 N.am      3 UNK        -0.4305 
     75 C         -45.5277  -25.2948    4.1062 C.2       2 UNK         0.5006 
     76 O         -45.2058  -24.1065    4.0867 O.2       2 UNK        -0.5106 
     77 CA        -46.0280  -25.9516    2.8026 C.3       2 UNK         0.0296 
     78 CB        -44.8391  -26.3762    1.9253 C.3       2 UNK        -0.2002 
     79 N         -46.8903  -27.1122    3.0378 N.am      2 UNK        -0.4032 
     80 C         -48.1117  -27.0569    3.5899 C.2       1 UNK         0.5000 
     81 O         -48.7058  -25.9946    3.7794 O.2       1 UNK        -0.5238 
     82 H82       -46.4279  -31.6777    4.0022 H         1 UNK         0.0889 
     83 H83       -45.9687  -31.4928    5.6962 H         1 UNK         0.0889 
     84 H84       -44.9543  -30.8028    4.4268 H         1 UNK         0.0889 
     85 H85       -48.0795  -30.2954    3.4107 H         1 UNK         0.3028 
     86 H86       -49.4774  -28.6361    3.2384 H         1 UNK         0.0864 
     87 H87       -49.4947  -29.2129    5.9092 H         1 UNK         0.0720 
     88 H88       -49.0645  -27.5436    6.0425 H         1 UNK         0.0720 
     89 H89       -51.6717  -30.0979    5.9029 H         1 UNK         0.0814 
     90 H90       -53.1620  -29.2209    5.7060 H         1 UNK         0.0814 
     91 H91       -50.2701  -29.7325    7.9964 H         1 UNK         0.1469 
     92 H92       -52.2703  -28.0112   11.3644 H         1 UNK         0.1381 
     93 H93       -54.0835  -27.8286    7.4847 H         1 UNK         0.1206 
     94 H94       -54.7167  -26.2323    9.4455 H         1 UNK         0.0813 
     95 H95       -54.2756  -26.7079   11.0642 H         1 UNK         0.0813 
     96 H96       -54.5961  -29.1457   11.8843 H         1 UNK         0.0638 
     97 H97       -55.8512  -30.2133   11.3153 H         1 UNK         0.0638 
     98 H98       -57.5699  -28.7456   12.4606 H         1 UNK         0.0568 
     99 H99       -56.4535  -30.2838   15.9017 H         1 UNK         0.3450 
    100 H100      -56.2830  -28.6025   15.4880 H         1 UNK         0.3450 
    101 H101      -55.1928  -27.2698   13.4512 H         1 UNK         0.2987 
    102 H102      -55.7891  -24.8202   13.2401 H         1 UNK         0.0766 
    103 H103      -56.9930  -23.0752   14.5389 H         1 UNK         0.0798 
    104 H104      -58.1630  -24.2700   15.0971 H         1 UNK         0.0798 
    105 H105      -58.0640  -23.8623   13.3915 H         1 UNK         0.0798 
    106 H106      -54.5590  -25.0195   15.0681 H         1 UNK         0.3198 
    107 H107      -54.3237  -24.5700   17.4681 H         1 UNK         0.0843 
    108 H108      -55.6283  -26.8345   19.0704 H         1 UNK         0.0831 
    109 H109      -55.9035  -25.1142   19.2708 H         1 UNK         0.0831 
    110 H110      -54.3269  -25.7929   19.6457 H         1 UNK         0.0831 
    111 H111      -52.8081  -25.9807   16.7191 H         1 UNK         0.3133 
    112 H112      -52.1457  -29.3724   17.0515 H         1 UNK         0.0566 
    113 H113      -52.7828  -28.0076   14.3796 H         1 UNK         0.0814 
    114 H114      -51.6971  -29.3793   14.5899 H         1 UNK         0.0814 
    115 H115      -53.4128  -29.5575   14.9199 H         1 UNK         0.0814 
    116 H116      -50.7554  -27.2939   15.6656 H         1 UNK         0.3091 
    117 H117      -49.1300  -25.8852   18.5312 H         1 UNK         0.0702 
    118 H118      -47.1950  -26.3696   17.0466 H         1 UNK         0.0785 
    119 H119      -48.1643  -27.5085   16.1125 H         1 UNK         0.0785 
    120 H120      -47.7868  -27.8435   17.7952 H         1 UNK         0.0785 
    121 H121      -49.2275  -25.2979   15.6886 H         1 UNK         0.2998 
    122 H122      -51.6420  -22.6945   15.9528 H         1 UNK         0.0697 
    123 H123      -48.6077  -22.5574   15.5239 H         1 UNK         0.0825 
    124 H124      -49.5364  -21.5855   16.6558 H         1 UNK         0.0825 
    125 H125      -49.7827  -21.3858   14.9284 H         1 UNK         0.0825 
    126 H126      -49.9904  -23.7794   13.8298 H         1 UNK         0.3029 
    127 H127      -52.3094  -26.2754   12.8342 H         1 UNK         0.0897 
    128 H128      -53.4345  -24.2865   11.8550 H         1 UNK         0.0792 
    129 H129      -52.3789  -25.0346   10.6638 H         1 UNK         0.0792 
    130 H130      -51.8770  -23.5599   11.4817 H         1 UNK         0.0792 
    131 H131      -50.0310  -25.2902   11.4792 H         1 UNK         0.3086 
    132 H132      -47.4857  -26.5720   13.5314 H         1 UNK         0.0583 
    133 H133      -46.7219  -28.1399   11.8614 H         1 UNK         0.1020 
    134 H134      -48.1183  -28.8168   12.6320 H         1 UNK         0.1020 
    135 H135      -49.6895  -30.3206   10.4901 H         1 UNK         0.0694 
    136 H136      -50.2574  -29.2046   11.7106 H         1 UNK         0.0694 
    137 H137      -47.3523  -25.7785   10.8241 H         1 UNK         0.2989 
    138 H138      -48.0592  -22.3855   11.0626 H         1 UNK         0.1055 
    139 H139      -45.7411  -22.2486   12.0120 H         1 UNK         0.0806 
    140 H140      -45.7463  -21.9031   10.2916 H         1 UNK         0.0806 
    141 H141      -45.1934  -23.4739   10.8757 H         1 UNK         0.0806 
    142 H142      -46.7816  -23.8103    8.9794 H         1 UNK         0.3061 
    143 H143      -49.0151  -26.0320    7.9202 H         1 UNK         0.0734 
    144 H144      -50.7387  -24.3318    7.2915 H         1 UNK         0.0832 
    145 H145      -49.8556  -24.8991    5.8920 H         1 UNK         0.0832 
    146 H146      -49.4903  -23.3159    6.5824 H         1 UNK         0.0832 
    147 H147      -47.3663  -24.5560    6.1749 H         1 UNK         0.3156 
    148 H148      -44.7628  -24.5723    6.5255 H         1 UNK         0.0589 
    149 H149      -44.1943  -27.5298    7.1050 H         1 UNK         0.0808 
    150 H150      -43.0619  -26.3999    6.3634 H         1 UNK         0.0808 
    151 H151      -43.5830  -26.1589    8.0233 H         1 UNK         0.0808 
    152 H152      -45.8081  -27.0227    5.1601 H         1 UNK         0.3098 
    153 H153      -46.6071  -25.2029    2.2578 H         1 UNK         0.0720 
    154 H154      -45.1744  -26.7790    0.9693 H         1 UNK         0.0791 
    155 H155      -44.2257  -27.1342    2.4144 H         1 UNK         0.0791 
    156 H156      -44.1924  -25.5251    1.7070 H         1 UNK         0.0791 
    157 H157      -46.4770  -28.0229    2.9007 H         1 UNK         0.3028 
@<TRIPOS>BOND
     1    1    2 1    
     2    1   82 1    
     3    1   83 1    
     4    1   84 1    
     5    2    3 2    
     6    2    4 am   BACKBONE|DICT|INTERRES
     7    4    5 1    
     8    4   85 1    
     9    5    6 1    
    10    5   80 1    
    11    5   86 1    
    12    6    7 1    
    13    6   87 1    
    14    6   88 1    
    15    7    8 1    
    16    8    9 1    
    17    8   89 1    
    18    8   90 1    
    19    9   10 ar   
    20    9   14 ar   
    21   10   11 ar   
    22   10   91 1    
    23   11   12 ar   
    24   11   58 1    
    25   12   13 ar   
    26   12   92 1    
    27   13   14 ar   
    28   13   15 1    
    29   14   93 1    
    30   15   16 1    
    31   15   94 1    
    32   15   95 1    
    33   16   17 1    
    34   17   18 1    
    35   17   96 1    
    36   17   97 1    
    37   18   19 1    
    38   18   22 1    
    39   18   98 1    
    40   19   20 am   BACKBONE|DICT|INTERRES
    41   19   21 2    
    42   20   99 1    
    43   20  100 1    
    44   22   23 am   BACKBONE|DICT|INTERRES
    45   22  101 1    
    46   23   24 2    
    47   23   25 1    
    48   25   26 1    
    49   25   27 1    
    50   25  102 1    
    51   26  103 1    
    52   26  104 1    
    53   26  105 1    
    54   27   28 am   BACKBONE|DICT|INTERRES
    55   27  106 1    
    56   28   29 2    
    57   28   30 1    
    58   30   31 1    
    59   30   32 1    
    60   30  107 1    
    61   31  108 1    
    62   31  109 1    
    63   31  110 1    
    64   32   33 am   BACKBONE|DICT|INTERRES
    65   32  111 1    
    66   33   34 2    
    67   33   35 1    
    68   35   36 1    
    69   35   37 1    
    70   35  112 1    
    71   36  113 1    
    72   36  114 1    
    73   36  115 1    
    74   37   38 am   BACKBONE|DICT|INTERRES
    75   37  116 1    
    76   38   39 2    
    77   38   40 1    
    78   40   41 1    
    79   40   42 1    
    80   40  117 1    
    81   41  118 1    
    82   41  119 1    
    83   41  120 1    
    84   42   43 am   BACKBONE|DICT|INTERRES
    85   42  121 1    
    86   43   44 2    
    87   43   45 1    
    88   45   46 1    
    89   45   47 1    
    90   45  122 1    
    91   46  123 1    
    92   46  124 1    
    93   46  125 1    
    94   47   48 am   BACKBONE|DICT|INTERRES
    95   47  126 1    
    96   48   49 2    
    97   48   50 1    
    98   50   51 1    
    99   50   52 1    
   100   50  127 1    
   101   51  128 1    
   102   51  129 1    
   103   51  130 1    
   104   52   53 am   BACKBONE|DICT|INTERRES
   105   52  131 1    
   106   53   54 2    
   107   53   55 1    
   108   55   56 1    
   109   55   59 1    
   110   55  132 1    
   111   56   57 1    
   112   56  133 1    
   113   56  134 1    
   114   57   58 1    
   115   58  135 1    
   116   58  136 1    
   117   59   60 am   BACKBONE|DICT|INTERRES
   118   59  137 1    
   119   60   61 2    
   120   60   62 1    
   121   62   63 1    
   122   62   64 1    
   123   62  138 1    
   124   63  139 1    
   125   63  140 1    
   126   63  141 1    
   127   64   65 am   BACKBONE|DICT|INTERRES
   128   64  142 1    
   129   65   66 2    
   130   65   67 1    
   131   67   68 1    
   132   67   69 1    
   133   67  143 1    
   134   68  144 1    
   135   68  145 1    
   136   68  146 1    
   137   69   70 am   BACKBONE|DICT|INTERRES
   138   69  147 1    
   139   70   71 2    
   140   70   72 1    
   141   72   73 1    
   142   72   74 1    
   143   72  148 1    
   144   73  149 1    
   145   73  150 1    
   146   73  151 1    
   147   74   75 am   BACKBONE|DICT|INTERRES
   148   74  152 1    
   149   75   76 2    
   150   75   77 1    
   151   77   78 1    
   152   77   79 1    
   153   77  153 1    
   154   78  154 1    
   155   78  155 1    
   156   78  156 1    
   157   79   80 am   BACKBONE|DICT|INTERRES
   158   79  157 1    
   159   80   81 2    
@<TRIPOS>SUBSTRUCTURE
     1 UNK         1 GROUP             0       ****    0 ROOT    
