@<TRIPOS>MOLECULE
3R207
157   159    1
SMALL
USER_CHARGES


@<TRIPOS>ATOM
      1 CA        -50.1620  -32.6037    1.7797 C.3       0 UNK        -0.1975 
      2 C         -50.0093  -31.1658    2.2544 C.2       0 UNK         0.4852 
      3 O         -49.0735  -30.4813    1.8366 O.2       0 UNK        -0.5216 
      4 N         -50.9253  -30.7036    3.1155 N.am      1 UNK        -0.4461 
      5 CA        -50.8992  -29.3729    3.7332 C.3       1 UNK         0.0864 
      6 C6        -52.3293  -28.9062    4.1175 C.3       14 UNK        -0.0898 
      7 S7        -52.5273  -27.1028    3.9266 S.3       14 UNK        -0.2598 
      8 C8        -53.9449  -26.7670    5.0183 C.3       14 UNK         0.0286 
      9 C9        -53.5824  -26.8975    6.4908 C.ar      14 UNK        -0.0844 
     10 C10       -52.7027  -25.9846    7.0795 C.ar      14 UNK        -0.0881 
     11 C11       -52.3736  -26.0873    8.4336 C.ar      14 UNK        -0.0643 
     12 C12       -52.9300  -27.1159    9.2010 C.ar      14 UNK        -0.0930 
     13 C13       -53.8275  -28.0236    8.6282 C.ar      14 UNK        -0.0827 
     14 C14       -54.1448  -27.9124    7.2709 C.ar      14 UNK        -0.1249 
     15 C15       -54.4537  -29.1233    9.4735 C.3       14 UNK         0.0141 
     16 S16       -55.5920  -28.4449   10.7228 S.3       14 UNK        -0.2313 
     17 C17       -56.1871  -29.9704   11.5306 C.3       14 UNK        -0.0915 
     18 CA        -55.6427  -30.1485   12.9802 C.3       13 UNK         0.0968 
     19 C         -56.3281  -31.3207   13.7473 C.2       13 UNK         0.5732 
     20 N         -55.6433  -32.0068   14.6553 N.am      13 UNK        -0.7310 
     21 O         -57.5087  -31.5965   13.5451 O.2       13 UNK        -0.5035 
     22 N         -54.1709  -30.1477   13.0543 N.am      13 UNK        -0.4233 
     23 C         -53.3468  -31.0428   12.4884 C.2       13 UNK         0.4989 
     24 O         -53.7340  -32.0145   11.8389 O.2       13 UNK        -0.4996 
     25 CA        -51.8305  -30.8215   12.6433 C.3       12 UNK         0.0216 
     26 CB        -51.1838  -30.4788   11.2887 C.3       12 UNK        -0.1964 
     27 N         -51.4975  -29.7716   13.6078 N.am      12 UNK        -0.4276 
     28 C         -51.3841  -29.9527   14.9281 C.2       12 UNK         0.5020 
     29 O         -51.5170  -31.0428   15.4854 O.2       12 UNK        -0.5489 
     30 CA        -51.0865  -28.7009   15.7725 C.3       11 UNK         0.0294 
     31 CB        -49.5727  -28.5448   15.9870 C.3       11 UNK        -0.2019 
     32 N         -51.6285  -27.4455   15.2363 N.am      11 UNK        -0.4493 
     33 C         -52.9252  -27.1811   15.0252 C.2       11 UNK         0.4932 
     34 O         -53.8151  -28.0313   15.0815 O.2       11 UNK        -0.5029 
     35 CA        -53.2687  -25.7085   14.7271 C.3       10 UNK         0.0280 
     36 CB        -54.7873  -25.4560   14.6240 C.3       10 UNK        -0.1976 
     37 N         -52.6499  -24.7878   15.6950 N.am      10 UNK        -0.4242 
     38 C         -52.7940  -24.7782   17.0303 C.2       10 UNK         0.5072 
     39 O         -53.5039  -25.5734   17.6493 O.2       10 UNK        -0.5224 
     40 CA        -52.0099  -23.6948   17.8071 C.3       9 UNK         0.0343 
     41 CB        -52.2910  -23.7312   19.3219 C.3       9 UNK        -0.2003 
     42 N         -50.5581  -23.7643   17.5996 N.am      9 UNK        -0.4272 
     43 C         -49.9214  -23.3531   16.4966 C.2       9 UNK         0.4988 
     44 O         -50.5182  -22.9060   15.5148 O.2       9 UNK        -0.5108 
     45 CA        -48.3825  -23.4825   16.4914 C.3       8 UNK         0.0248 
     46 CB        -47.9500  -24.9589   16.5381 C.3       8 UNK        -0.2001 
     47 N         -47.8027  -22.8680   15.2959 N.am      8 UNK        -0.4140 
     48 C         -47.7122  -21.5488   15.0685 C.2       8 UNK         0.5028 
     49 O         -47.8451  -20.6867   15.9386 O.2       8 UNK        -0.5428 
     50 CA        -47.5102  -21.1265   13.6013 C.3       7 UNK         0.0264 
     51 CB        -46.0232  -21.1297   13.2095 C.3       7 UNK        -0.1988 
     52 N         -48.2776  -22.0131   12.7183 N.am      7 UNK        -0.4454 
     53 C         -49.6063  -21.9051   12.5443 C.2       7 UNK         0.5027 
     54 O         -50.2421  -20.8980   12.8615 O.2       7 UNK        -0.5083 
     55 CA        -50.3775  -23.1081   11.9568 C.3       6 UNK         0.0844 
     56 C56       -51.0287  -22.7442   10.5997 C.3       14 UNK        -0.0967 
     57 S57       -52.3338  -23.9274   10.1347 S.3       14 UNK        -0.2604 
     58 C58       -51.4242  -25.0831    9.0669 C.3       14 UNK         0.0134 
     59 N         -49.5259  -24.2951   11.8459 N.am      6 UNK        -0.4116 
     60 C         -49.4799  -25.3113   12.7195 C.2       5 UNK         0.5034 
     61 O         -50.1972  -25.4108   13.7129 O.2       5 UNK        -0.5045 
     62 CA        -48.4451  -26.4219   12.4594 C.3       5 UNK         0.0224 
     63 CB        -49.1207  -27.6260   11.7927 C.3       5 UNK        -0.1978 
     64 N         -47.3027  -26.0022   11.6467 N.am      5 UNK        -0.4737 
     65 C         -46.4320  -25.0474   11.9957 C.2       4 UNK         0.5027 
     66 O         -46.4770  -24.4538   13.0727 O.2       4 UNK        -0.5211 
     67 CA        -45.4040  -24.6252   10.9313 C.3       4 UNK         0.0297 
     68 CB        -44.0978  -25.4140   11.1089 C.3       4 UNK        -0.1993 
     69 N         -45.8798  -24.7632    9.5451 N.am      4 UNK        -0.4486 
     70 C         -46.9690  -24.1614    9.0395 C.2       3 UNK         0.4961 
     71 O         -47.7394  -23.4710    9.7065 O.2       3 UNK        -0.5105 
     72 CA        -47.2840  -24.4174    7.5627 C.3       3 UNK         0.0299 
     73 CB        -46.1366  -23.9752    6.6362 C.3       3 UNK        -0.1972 
     74 N         -47.5942  -25.8329    7.3537 N.am      3 UNK        -0.4305 
     75 C         -48.6184  -26.2856    6.6211 C.2       2 UNK         0.5006 
     76 O         -49.4083  -25.5593    6.0109 O.2       2 UNK        -0.5106 
     77 CA        -48.7942  -27.8093    6.5662 C.3       2 UNK         0.0296 
     78 CB        -49.3219  -28.3619    7.9061 C.3       2 UNK        -0.2002 
     79 N         -49.7148  -28.1248    5.4771 N.am      2 UNK        -0.4032 
     80 C         -49.9182  -29.3266    4.9288 C.2       1 UNK         0.5000 
     81 O         -49.3721  -30.3593    5.3305 O.2       1 UNK        -0.5238 
     82 H82       -50.2608  -32.6326    0.6949 H         1 UNK         0.0889 
     83 H83       -51.0384  -33.0857    2.2127 H         1 UNK         0.0889 
     84 H84       -49.2834  -33.1852    2.0580 H         1 UNK         0.0889 
     85 H85       -51.6456  -31.3269    3.4511 H         1 UNK         0.3028 
     86 H86       -50.5050  -28.6842    2.9819 H         1 UNK         0.0864 
     87 H87       -52.5944  -29.2178    5.1298 H         1 UNK         0.0720 
     88 H88       -53.0712  -29.3657    3.4621 H         1 UNK         0.0720 
     89 H89       -54.7684  -27.4328    4.7550 H         1 UNK         0.0814 
     90 H90       -54.3010  -25.7531    4.8301 H         1 UNK         0.0814 
     91 H91       -52.2707  -25.1953    6.4789 H         1 UNK         0.1469 
     92 H92       -52.6851  -27.1928   10.2514 H         1 UNK         0.1381 
     93 H93       -54.8355  -28.6130    6.8219 H         1 UNK         0.1206 
     94 H94       -53.6665  -29.6945    9.9610 H         1 UNK         0.0813 
     95 H95       -54.9981  -29.8285    8.8436 H         1 UNK         0.0813 
     96 H96       -57.2765  -29.9089   11.5418 H         1 UNK         0.0638 
     97 H97       -55.9464  -30.8382   10.9152 H         1 UNK         0.0638 
     98 H98       -55.9465  -29.2619   13.5377 H         1 UNK         0.0568 
     99 H99       -54.6797  -31.7822   14.8455 H         1 UNK         0.3450 
    100 H100      -56.0976  -32.7551   15.1542 H         1 UNK         0.3450 
    101 H101      -53.7829  -29.4120   13.6343 H         1 UNK         0.2987 
    102 H102      -51.4062  -31.7681   12.9853 H         1 UNK         0.0766 
    103 H103      -51.5019  -29.5045   10.9176 H         1 UNK         0.0798 
    104 H104      -51.4424  -31.2179   10.5289 H         1 UNK         0.0798 
    105 H105      -50.0964  -30.4695   11.3637 H         1 UNK         0.0798 
    106 H106      -51.4011  -28.8324   13.2531 H         1 UNK         0.3198 
    107 H107      -51.5530  -28.8582   16.7474 H         1 UNK         0.0843 
    108 H108      -49.3523  -27.7363   16.6837 H         1 UNK         0.0831 
    109 H109      -49.0506  -28.3385   15.0524 H         1 UNK         0.0831 
    110 H110      -49.1417  -29.4552   16.4062 H         1 UNK         0.0831 
    111 H111      -50.9741  -26.6860   15.0734 H         1 UNK         0.3133 
    112 H112      -52.8353  -25.4774   13.7533 H         1 UNK         0.0566 
    113 H113      -55.2315  -26.0696   13.8388 H         1 UNK         0.0814 
    114 H114      -55.3025  -25.6959   15.5547 H         1 UNK         0.0814 
    115 H115      -55.0002  -24.4153   14.3804 H         1 UNK         0.0814 
    116 H116      -51.9786  -24.1255   15.3101 H         1 UNK         0.3091 
    117 H117      -52.3630  -22.7298   17.4367 H         1 UNK         0.0702 
    118 H118      -51.7894  -22.9129   19.8388 H         1 UNK         0.0785 
    119 H119      -51.9589  -24.6677   19.7720 H         1 UNK         0.0785 
    120 H120      -53.3583  -23.6317   19.5247 H         1 UNK         0.0785 
    121 H121      -50.0159  -24.1518   18.3584 H         1 UNK         0.2998 
    122 H122      -47.9926  -22.9695   17.3728 H         1 UNK         0.0697 
    123 H123      -46.8643  -25.0539   16.5074 H         1 UNK         0.0825 
    124 H124      -48.2871  -25.4453   17.4538 H         1 UNK         0.0825 
    125 H125      -48.3553  -25.5247   15.6994 H         1 UNK         0.0825 
    126 H126      -47.6173  -23.4916   14.5192 H         1 UNK         0.3029 
    127 H127      -47.8819  -20.1054   13.4896 H         1 UNK         0.0897 
    128 H128      -45.8896  -20.8887   12.1547 H         1 UNK         0.0792 
    129 H129      -45.4746  -20.3830   13.7848 H         1 UNK         0.0792 
    130 H130      -45.5463  -22.0908   13.3983 H         1 UNK         0.0792 
    131 H131      -47.8164  -22.8651   12.4279 H         1 UNK         0.3086 
    132 H132      -51.1814  -23.3117   12.6681 H         1 UNK         0.0583 
    133 H133      -51.5076  -21.7642   10.6515 H         1 UNK         0.1020 
    134 H134      -50.2828  -22.6676    9.8068 H         1 UNK         0.1020 
    135 H135      -50.8877  -24.5242    8.2983 H         1 UNK         0.0694 
    136 H136      -50.6703  -25.6106    9.6501 H         1 UNK         0.0694 
    137 H137      -48.8774  -24.2851   11.0648 H         1 UNK         0.2989 
    138 H138      -48.0591  -26.7345   13.4319 H         1 UNK         0.1055 
    139 H139      -49.5134  -27.3785   10.8072 H         1 UNK         0.0806 
    140 H140      -49.9584  -27.9693   12.3943 H         1 UNK         0.0806 
    141 H141      -48.4320  -28.4644   11.6857 H         1 UNK         0.0806 
    142 H142      -47.1912  -26.4418   10.7456 H         1 UNK         0.3061 
    143 H143      -45.1882  -23.5675   11.0965 H         1 UNK         0.0734 
    144 H144      -43.3202  -25.0540   10.4349 H         1 UNK         0.0832 
    145 H145      -43.7146  -25.3091   12.1252 H         1 UNK         0.0832 
    146 H146      -44.2390  -26.4795   10.9231 H         1 UNK         0.0832 
    147 H147      -45.2901  -25.2980    8.9240 H         1 UNK         0.3156 
    148 H148      -48.1574  -23.8058    7.3248 H         1 UNK         0.0589 
    149 H149      -45.2428  -24.5866    6.7628 H         1 UNK         0.0808 
    150 H150      -46.4345  -24.0399    5.5895 H         1 UNK         0.0808 
    151 H151      -45.8563  -22.9384    6.8274 H         1 UNK         0.0808 
    152 H152      -47.0070  -26.5026    7.8301 H         1 UNK         0.3098 
    153 H153      -47.8243  -28.2575    6.3409 H         1 UNK         0.0720 
    154 H154      -50.2976  -27.9469    8.1549 H         1 UNK         0.0791 
    155 H155      -48.6416  -28.1274    8.7241 H         1 UNK         0.0791 
    156 H156      -49.4229  -29.4468    7.8826 H         1 UNK         0.0791 
    157 H157      -50.2013  -27.3139    5.1084 H         1 UNK         0.3028 
@<TRIPOS>BOND
     1    1    2 1    
     2    1   82 1    
     3    1   83 1    
     4    1   84 1    
     5    2    3 2    
     6    2    4 am   BACKBONE|DICT|INTERRES
     7    4    5 1    
     8    4   85 1    
     9    5    6 1    
    10    5   80 1    
    11    5   86 1    
    12    6    7 1    
    13    6   87 1    
    14    6   88 1    
    15    7    8 1    
    16    8    9 1    
    17    8   89 1    
    18    8   90 1    
    19    9   10 ar   
    20    9   14 ar   
    21   10   11 ar   
    22   10   91 1    
    23   11   12 ar   
    24   11   58 1    
    25   12   13 ar   
    26   12   92 1    
    27   13   14 ar   
    28   13   15 1    
    29   14   93 1    
    30   15   16 1    
    31   15   94 1    
    32   15   95 1    
    33   16   17 1    
    34   17   18 1    
    35   17   96 1    
    36   17   97 1    
    37   18   19 1    
    38   18   22 1    
    39   18   98 1    
    40   19   20 am   BACKBONE|DICT|INTERRES
    41   19   21 2    
    42   20   99 1    
    43   20  100 1    
    44   22   23 am   BACKBONE|DICT|INTERRES
    45   22  101 1    
    46   23   24 2    
    47   23   25 1    
    48   25   26 1    
    49   25   27 1    
    50   25  102 1    
    51   26  103 1    
    52   26  104 1    
    53   26  105 1    
    54   27   28 am   BACKBONE|DICT|INTERRES
    55   27  106 1    
    56   28   29 2    
    57   28   30 1    
    58   30   31 1    
    59   30   32 1    
    60   30  107 1    
    61   31  108 1    
    62   31  109 1    
    63   31  110 1    
    64   32   33 am   BACKBONE|DICT|INTERRES
    65   32  111 1    
    66   33   34 2    
    67   33   35 1    
    68   35   36 1    
    69   35   37 1    
    70   35  112 1    
    71   36  113 1    
    72   36  114 1    
    73   36  115 1    
    74   37   38 am   BACKBONE|DICT|INTERRES
    75   37  116 1    
    76   38   39 2    
    77   38   40 1    
    78   40   41 1    
    79   40   42 1    
    80   40  117 1    
    81   41  118 1    
    82   41  119 1    
    83   41  120 1    
    84   42   43 am   BACKBONE|DICT|INTERRES
    85   42  121 1    
    86   43   44 2    
    87   43   45 1    
    88   45   46 1    
    89   45   47 1    
    90   45  122 1    
    91   46  123 1    
    92   46  124 1    
    93   46  125 1    
    94   47   48 am   BACKBONE|DICT|INTERRES
    95   47  126 1    
    96   48   49 2    
    97   48   50 1    
    98   50   51 1    
    99   50   52 1    
   100   50  127 1    
   101   51  128 1    
   102   51  129 1    
   103   51  130 1    
   104   52   53 am   BACKBONE|DICT|INTERRES
   105   52  131 1    
   106   53   54 2    
   107   53   55 1    
   108   55   56 1    
   109   55   59 1    
   110   55  132 1    
   111   56   57 1    
   112   56  133 1    
   113   56  134 1    
   114   57   58 1    
   115   58  135 1    
   116   58  136 1    
   117   59   60 am   BACKBONE|DICT|INTERRES
   118   59  137 1    
   119   60   61 2    
   120   60   62 1    
   121   62   63 1    
   122   62   64 1    
   123   62  138 1    
   124   63  139 1    
   125   63  140 1    
   126   63  141 1    
   127   64   65 am   BACKBONE|DICT|INTERRES
   128   64  142 1    
   129   65   66 2    
   130   65   67 1    
   131   67   68 1    
   132   67   69 1    
   133   67  143 1    
   134   68  144 1    
   135   68  145 1    
   136   68  146 1    
   137   69   70 am   BACKBONE|DICT|INTERRES
   138   69  147 1    
   139   70   71 2    
   140   70   72 1    
   141   72   73 1    
   142   72   74 1    
   143   72  148 1    
   144   73  149 1    
   145   73  150 1    
   146   73  151 1    
   147   74   75 am   BACKBONE|DICT|INTERRES
   148   74  152 1    
   149   75   76 2    
   150   75   77 1    
   151   77   78 1    
   152   77   79 1    
   153   77  153 1    
   154   78  154 1    
   155   78  155 1    
   156   78  156 1    
   157   79   80 am   BACKBONE|DICT|INTERRES
   158   79  157 1    
   159   80   81 2    
@<TRIPOS>SUBSTRUCTURE
     1 UNK         1 GROUP             0       ****    0 ROOT    
