@<TRIPOS>MOLECULE
3R207
157   159    1
SMALL
USER_CHARGES


@<TRIPOS>ATOM
      1 CA        -44.9754  -29.6057    8.0094 C.3       0 UNK        -0.1975 
      2 C         -45.6298  -29.6891    6.6381 C.2       0 UNK         0.4852 
      3 O         -45.4942  -30.7046    5.9541 O.2       0 UNK        -0.5216 
      4 N         -46.3315  -28.6271    6.2343 N.am      1 UNK        -0.4461 
      5 CA        -47.0767  -28.5220    4.9798 C.3       1 UNK         0.0864 
      6 C6        -48.5501  -29.0043    5.1092 C.3       14 UNK        -0.0898 
      7 S7        -49.4467  -28.3968    6.5845 S.3       14 UNK        -0.2598 
      8 C8        -51.0553  -27.9441    5.8715 C.3       14 UNK         0.0286 
      9 C9        -52.1253  -27.7960    6.9453 C.ar      14 UNK        -0.0844 
     10 C10       -52.6093  -26.5331    7.3053 C.ar      14 UNK        -0.0881 
     11 C11       -53.6504  -26.4116    8.2329 C.ar      14 UNK        -0.0643 
     12 C12       -54.1969  -27.5628    8.8060 C.ar      14 UNK        -0.0930 
     13 C13       -53.6941  -28.8262    8.4894 C.ar      14 UNK        -0.0827 
     14 C14       -52.6675  -28.9369    7.5472 C.ar      14 UNK        -0.1249 
     15 C15       -54.2881  -30.0706    9.1370 C.3       14 UNK         0.0141 
     16 S16       -53.3356  -30.6316   10.5882 S.3       14 UNK        -0.2313 
     17 C17       -53.7527  -29.3773   11.8467 C.3       14 UNK        -0.0915 
     18 CA        -55.0271  -29.7390   12.6568 C.3       13 UNK         0.0968 
     19 C         -54.7086  -30.6449   13.8793 C.2       13 UNK         0.5732 
     20 N         -54.5161  -31.9376   13.6583 N.am      13 UNK        -0.7310 
     21 O         -54.6065  -30.1864   15.0160 O.2       13 UNK        -0.5035 
     22 N         -55.7674  -28.5293   13.0372 N.am      13 UNK        -0.4233 
     23 C         -57.0559  -28.4981   13.3928 C.2       13 UNK         0.4989 
     24 O         -57.8022  -29.4785   13.3529 O.2       13 UNK        -0.4996 
     25 CA        -57.5894  -27.1380   13.8892 C.3       12 UNK         0.0216 
     26 CB        -59.1231  -27.1211   14.0347 C.3       12 UNK        -0.1964 
     27 N         -56.9865  -26.7498   15.1683 N.am      12 UNK        -0.4276 
     28 C         -55.7327  -26.3087   15.3235 C.2       12 UNK         0.5020 
     29 O         -54.9489  -26.1516   14.3845 O.2       12 UNK        -0.5489 
     30 CA        -55.2712  -26.0321   16.7585 C.3       11 UNK         0.0294 
     31 CB        -55.1023  -27.3506   17.5401 C.3       11 UNK        -0.2019 
     32 N         -53.9969  -25.3205   16.7158 N.am      11 UNK        -0.4493 
     33 C         -53.4538  -24.6192   17.7179 C.2       11 UNK         0.4932 
     34 O         -54.0179  -24.4131   18.7944 O.2       11 UNK        -0.5029 
     35 CA        -52.0243  -24.0960   17.4744 C.3       10 UNK         0.0280 
     36 CB        -51.3718  -23.4704   18.7254 C.3       10 UNK        -0.1976 
     37 N         -51.1738  -25.1386   16.8885 N.am      10 UNK        -0.4242 
     38 C         -50.8385  -26.3205   17.4300 C.2       10 UNK         0.5072 
     39 O         -51.0776  -26.6465   18.5935 O.2       10 UNK        -0.5224 
     40 CA        -50.1496  -27.3367   16.5035 C.3       9 UNK         0.0343 
     41 CB        -51.2032  -28.2703   15.8820 C.3       9 UNK        -0.2003 
     42 N         -49.3651  -26.7130   15.4345 N.am      9 UNK        -0.4272 
     43 C         -48.1883  -26.0955   15.6156 C.2       9 UNK         0.4988 
     44 O         -47.6143  -26.0197   16.7026 O.2       9 UNK        -0.5108 
     45 CA        -47.5469  -25.4404   14.3786 C.3       8 UNK         0.0248 
     46 CB        -46.8750  -26.4947   13.4843 C.3       8 UNK        -0.2001 
     47 N         -48.5047  -24.6586   13.5925 N.am      8 UNK        -0.4140 
     48 C         -49.1159  -23.5471   14.0292 C.2       8 UNK         0.5028 
     49 O         -48.8939  -23.0208   15.1198 O.2       8 UNK        -0.5428 
     50 CA        -50.1802  -22.9333   13.1074 C.3       7 UNK         0.0264 
     51 CB        -49.5406  -21.9914   12.0746 C.3       7 UNK        -0.1988 
     52 N         -50.9724  -23.9562   12.4239 N.am      7 UNK        -0.4454 
     53 C         -51.8743  -24.7419   13.0298 C.2       7 UNK         0.5027 
     54 O         -52.1405  -24.6718   14.2296 O.2       7 UNK        -0.5083 
     55 CA        -52.5682  -25.8095   12.1596 C.3       6 UNK         0.0844 
     56 C56       -53.7804  -25.2143   11.3976 C.3       14 UNK        -0.0967 
     57 S57       -53.3212  -24.2219    9.9293 S.3       14 UNK        -0.2604 
     58 C58       -54.2252  -25.0446    8.5793 C.3       14 UNK         0.0134 
     59 N         -51.6296  -26.5162   11.2846 N.am      6 UNK        -0.4116 
     60 C         -50.5920  -27.2489   11.7131 C.2       5 UNK         0.5034 
     61 O         -50.3635  -27.4862   12.8971 O.2       5 UNK        -0.5045 
     62 CA        -49.5993  -27.7490   10.6542 C.3       5 UNK         0.0224 
     63 CB        -49.9680  -29.1593   10.1771 C.3       5 UNK        -0.1978 
     64 N         -49.4715  -26.8500    9.5054 N.am      5 UNK        -0.4737 
     65 C         -49.0069  -25.5970    9.5756 C.2       4 UNK         0.5027 
     66 O         -48.6807  -25.0445   10.6287 O.2       4 UNK        -0.5211 
     67 CA        -48.9186  -24.8230    8.2523 C.3       4 UNK         0.0297 
     68 CB        -49.9181  -23.6570    8.2293 C.3       4 UNK        -0.1993 
     69 N         -47.5714  -24.3086    8.0115 N.am      4 UNK        -0.4486 
     70 C         -46.4995  -25.0798    7.8020 C.2       3 UNK         0.4961 
     71 O         -46.5108  -26.3130    7.8374 O.2       3 UNK        -0.5105 
     72 CA        -45.1990  -24.3674    7.4121 C.3       3 UNK         0.0299 
     73 CB        -44.0818  -24.6550    8.4287 C.3       3 UNK        -0.1972 
     74 N         -44.8194  -24.8882    6.1028 N.am      3 UNK        -0.4305 
     75 C         -45.3016  -24.4248    4.9414 C.2       2 UNK         0.5006 
     76 O         -45.8511  -23.3309    4.8060 O.2       2 UNK        -0.5106 
     77 CA        -45.2173  -25.3896    3.7474 C.3       2 UNK         0.0296 
     78 CB        -43.7960  -25.4259    3.1615 C.3       2 UNK        -0.2002 
     79 N         -45.6384  -26.7435    4.1276 N.am      2 UNK        -0.4032 
     80 C         -46.8991  -27.0946    4.4332 C.2       1 UNK         0.5000 
     81 O         -47.8656  -26.3370    4.3261 O.2       1 UNK        -0.5238 
     82 H82       -45.1991  -28.6635    8.5099 H         1 UNK         0.0889 
     83 H83       -43.8934  -29.6925    7.9159 H         1 UNK         0.0889 
     84 H84       -45.3306  -30.4172    8.6437 H         1 UNK         0.0889 
     85 H85       -46.4199  -27.8165    6.8494 H         1 UNK         0.3028 
     86 H86       -46.6029  -29.1651    4.2345 H         1 UNK         0.0864 
     87 H87       -49.1093  -28.7604    4.2042 H         1 UNK         0.0720 
     88 H88       -48.5575  -30.0937    5.1665 H         1 UNK         0.0720 
     89 H89       -51.3700  -28.7139    5.1653 H         1 UNK         0.0814 
     90 H90       -50.9448  -27.0231    5.2968 H         1 UNK         0.0814 
     91 H91       -52.2000  -25.6464    6.8407 H         1 UNK         0.1469 
     92 H92       -55.0225  -27.4795    9.4982 H         1 UNK         0.1381 
     93 H93       -52.2899  -29.9143    7.2784 H         1 UNK         0.1206 
     94 H94       -55.3247  -29.8946    9.4286 H         1 UNK         0.0813 
     95 H95       -54.3155  -30.8799    8.4060 H         1 UNK         0.0813 
     96 H96       -53.8779  -28.4234   11.3400 H         1 UNK         0.0638 
     97 H97       -52.8914  -29.2378   12.5031 H         1 UNK         0.0638 
     98 H98       -55.6954  -30.3058   12.0051 H         1 UNK         0.0568 
     99 H99       -54.5615  -32.3149   12.7245 H         1 UNK         0.3450 
    100 H100      -54.2975  -32.5408   14.4352 H         1 UNK         0.3450 
    101 H101      -55.2180  -27.6997   13.2397 H         1 UNK         0.2987 
    102 H102      -57.3219  -26.3915   13.1378 H         1 UNK         0.0766 
    103 H103      -59.4842  -26.1313   14.3148 H         1 UNK         0.0798 
    104 H104      -59.4677  -27.8301   14.7886 H         1 UNK         0.0798 
    105 H105      -59.6072  -27.3852   13.0934 H         1 UNK         0.0798 
    106 H106      -57.5563  -26.8860   15.9913 H         1 UNK         0.3198 
    107 H107      -56.0179  -25.4013   17.2453 H         1 UNK         0.0843 
    108 H108      -56.0414  -27.9013   17.6019 H         1 UNK         0.0831 
    109 H109      -54.7695  -27.1711   18.5625 H         1 UNK         0.0831 
    110 H110      -54.3720  -28.0062   17.0630 H         1 UNK         0.0831 
    111 H111      -53.5176  -25.3730   15.8198 H         1 UNK         0.3133 
    112 H112      -52.1070  -23.3118   16.7204 H         1 UNK         0.0566 
    113 H113      -50.3644  -23.1148   18.5089 H         1 UNK         0.0814 
    114 H114      -51.9496  -22.6153   19.0778 H         1 UNK         0.0814 
    115 H115      -51.3079  -24.1794   19.5512 H         1 UNK         0.0814 
    116 H116      -50.9894  -25.0147   15.8991 H         1 UNK         0.3091 
    117 H117      -49.4755  -27.9408   17.1145 H         1 UNK         0.0702 
    118 H118      -50.7385  -29.0410   15.2668 H         1 UNK         0.0785 
    119 H119      -51.9085  -27.7228   15.2544 H         1 UNK         0.0785 
    120 H120      -51.7828  -28.7780   16.6543 H         1 UNK         0.0785 
    121 H121      -49.7391  -26.8001   14.4913 H         1 UNK         0.2998 
    122 H122      -46.7733  -24.7535   14.7282 H         1 UNK         0.0697 
    123 H123      -47.5826  -27.2544   13.1540 H         1 UNK         0.0825 
    124 H124      -46.0785  -27.0086   14.0239 H         1 UNK         0.0825 
    125 H125      -46.4288  -26.0421   12.5982 H         1 UNK         0.0825 
    126 H126      -48.7022  -24.9754   12.6476 H         1 UNK         0.3029 
    127 H127      -50.8569  -22.3435   13.7300 H         1 UNK         0.0897 
    128 H128      -50.2951  -21.5280   11.4386 H         1 UNK         0.0792 
    129 H129      -48.9962  -21.1865   12.5702 H         1 UNK         0.0792 
    130 H130      -48.8317  -22.5125   11.4308 H         1 UNK         0.0792 
    131 H131      -50.7777  -24.1070   11.4440 H         1 UNK         0.3086 
    132 H132      -52.9527  -26.5600   12.8515 H         1 UNK         0.0583 
    133 H133      -54.4510  -26.0187   11.1047 H         1 UNK         0.1020 
    134 H134      -54.3822  -24.5910   12.0628 H         1 UNK         0.1020 
    135 H135      -55.2795  -25.1285    8.8479 H         1 UNK         0.0694 
    136 H136      -54.1910  -24.4025    7.6980 H         1 UNK         0.0694 
    137 H137      -51.7446  -26.3707   10.2917 H         1 UNK         0.2989 
    138 H138      -48.6194  -27.8047   11.1310 H         1 UNK         0.1055 
    139 H139      -50.0768  -29.8437   11.0197 H         1 UNK         0.0806 
    140 H140      -49.2009  -29.5709    9.5211 H         1 UNK         0.0806 
    141 H141      -50.9105  -29.1618    9.6328 H         1 UNK         0.0806 
    142 H142      -49.6885  -27.2433    8.5971 H         1 UNK         0.3061 
    143 H143      -49.1654  -25.4952    7.4276 H         1 UNK         0.0734 
    144 H144      -50.9385  -24.0227    8.3307 H         1 UNK         0.0832 
    145 H145      -49.7401  -22.9507    9.0410 H         1 UNK         0.0832 
    146 H146      -49.8691  -23.1085    7.2885 H         1 UNK         0.0832 
    147 H147      -47.4678  -23.3051    7.9741 H         1 UNK         0.3156 
    148 H148      -45.3584  -23.2881    7.3607 H         1 UNK         0.0589 
    149 H149      -43.8891  -25.7238    8.5326 H         1 UNK         0.0808 
    150 H150      -43.1483  -24.1734    8.1372 H         1 UNK         0.0808 
    151 H151      -44.3493  -24.2755    9.4157 H         1 UNK         0.0808 
    152 H152      -44.4087  -25.8099    6.1053 H         1 UNK         0.3098 
    153 H153      -45.8962  -25.0256    2.9731 H         1 UNK         0.0720 
    154 H154      -43.7506  -26.0562    2.2731 H         1 UNK         0.0791 
    155 H155      -43.0667  -25.8042    3.8787 H         1 UNK         0.0791 
    156 H156      -43.4729  -24.4271    2.8645 H         1 UNK         0.0791 
    157 H157      -44.9101  -27.4349    4.2369 H         1 UNK         0.3028 
@<TRIPOS>BOND
     1    1    2 1    
     2    1   82 1    
     3    1   83 1    
     4    1   84 1    
     5    2    3 2    
     6    2    4 am   BACKBONE|DICT|INTERRES
     7    4    5 1    
     8    4   85 1    
     9    5    6 1    
    10    5   80 1    
    11    5   86 1    
    12    6    7 1    
    13    6   87 1    
    14    6   88 1    
    15    7    8 1    
    16    8    9 1    
    17    8   89 1    
    18    8   90 1    
    19    9   10 ar   
    20    9   14 ar   
    21   10   11 ar   
    22   10   91 1    
    23   11   12 ar   
    24   11   58 1    
    25   12   13 ar   
    26   12   92 1    
    27   13   14 ar   
    28   13   15 1    
    29   14   93 1    
    30   15   16 1    
    31   15   94 1    
    32   15   95 1    
    33   16   17 1    
    34   17   18 1    
    35   17   96 1    
    36   17   97 1    
    37   18   19 1    
    38   18   22 1    
    39   18   98 1    
    40   19   20 am   BACKBONE|DICT|INTERRES
    41   19   21 2    
    42   20   99 1    
    43   20  100 1    
    44   22   23 am   BACKBONE|DICT|INTERRES
    45   22  101 1    
    46   23   24 2    
    47   23   25 1    
    48   25   26 1    
    49   25   27 1    
    50   25  102 1    
    51   26  103 1    
    52   26  104 1    
    53   26  105 1    
    54   27   28 am   BACKBONE|DICT|INTERRES
    55   27  106 1    
    56   28   29 2    
    57   28   30 1    
    58   30   31 1    
    59   30   32 1    
    60   30  107 1    
    61   31  108 1    
    62   31  109 1    
    63   31  110 1    
    64   32   33 am   BACKBONE|DICT|INTERRES
    65   32  111 1    
    66   33   34 2    
    67   33   35 1    
    68   35   36 1    
    69   35   37 1    
    70   35  112 1    
    71   36  113 1    
    72   36  114 1    
    73   36  115 1    
    74   37   38 am   BACKBONE|DICT|INTERRES
    75   37  116 1    
    76   38   39 2    
    77   38   40 1    
    78   40   41 1    
    79   40   42 1    
    80   40  117 1    
    81   41  118 1    
    82   41  119 1    
    83   41  120 1    
    84   42   43 am   BACKBONE|DICT|INTERRES
    85   42  121 1    
    86   43   44 2    
    87   43   45 1    
    88   45   46 1    
    89   45   47 1    
    90   45  122 1    
    91   46  123 1    
    92   46  124 1    
    93   46  125 1    
    94   47   48 am   BACKBONE|DICT|INTERRES
    95   47  126 1    
    96   48   49 2    
    97   48   50 1    
    98   50   51 1    
    99   50   52 1    
   100   50  127 1    
   101   51  128 1    
   102   51  129 1    
   103   51  130 1    
   104   52   53 am   BACKBONE|DICT|INTERRES
   105   52  131 1    
   106   53   54 2    
   107   53   55 1    
   108   55   56 1    
   109   55   59 1    
   110   55  132 1    
   111   56   57 1    
   112   56  133 1    
   113   56  134 1    
   114   57   58 1    
   115   58  135 1    
   116   58  136 1    
   117   59   60 am   BACKBONE|DICT|INTERRES
   118   59  137 1    
   119   60   61 2    
   120   60   62 1    
   121   62   63 1    
   122   62   64 1    
   123   62  138 1    
   124   63  139 1    
   125   63  140 1    
   126   63  141 1    
   127   64   65 am   BACKBONE|DICT|INTERRES
   128   64  142 1    
   129   65   66 2    
   130   65   67 1    
   131   67   68 1    
   132   67   69 1    
   133   67  143 1    
   134   68  144 1    
   135   68  145 1    
   136   68  146 1    
   137   69   70 am   BACKBONE|DICT|INTERRES
   138   69  147 1    
   139   70   71 2    
   140   70   72 1    
   141   72   73 1    
   142   72   74 1    
   143   72  148 1    
   144   73  149 1    
   145   73  150 1    
   146   73  151 1    
   147   74   75 am   BACKBONE|DICT|INTERRES
   148   74  152 1    
   149   75   76 2    
   150   75   77 1    
   151   77   78 1    
   152   77   79 1    
   153   77  153 1    
   154   78  154 1    
   155   78  155 1    
   156   78  156 1    
   157   79   80 am   BACKBONE|DICT|INTERRES
   158   79  157 1    
   159   80   81 2    
@<TRIPOS>SUBSTRUCTURE
     1 UNK         1 GROUP             0       ****    0 ROOT    
