@<TRIPOS>MOLECULE
3R207
157   159    1
SMALL
USER_CHARGES


@<TRIPOS>ATOM
      1 CA        -46.9707  -30.8396    3.4743 C.3       0 UNK        -0.1975 
      2 C         -47.5503  -29.6794    4.2694 C.2       0 UNK         0.4852 
      3 O         -47.0462  -29.3707    5.3497 O.2       0 UNK        -0.5216 
      4 N         -48.5897  -29.0245    3.7310 N.am      1 UNK        -0.4461 
      5 CA        -49.3686  -27.9090    4.3015 C.3       1 UNK         0.0864 
      6 C6        -50.0505  -28.2358    5.6581 C.3       14 UNK        -0.0898 
      7 S7        -51.1254  -29.7102    5.5687 S.3       14 UNK        -0.2598 
      8 C8        -52.7900  -28.9996    5.7897 C.3       14 UNK         0.0286 
      9 C9        -52.9920  -28.4301    7.1879 C.ar      14 UNK        -0.0844 
     10 C10       -53.1978  -27.0587    7.3689 C.ar      14 UNK        -0.0881 
     11 C11       -53.3537  -26.5272    8.6534 C.ar      14 UNK        -0.0643 
     12 C12       -53.3313  -27.3851    9.7578 C.ar      14 UNK        -0.0930 
     13 C13       -53.1195  -28.7548    9.5908 C.ar      14 UNK        -0.0827 
     14 C14       -52.9630  -29.2741    8.3028 C.ar      14 UNK        -0.1249 
     15 C15       -53.0190  -29.6642   10.8041 C.3       14 UNK         0.0141 
     16 S16       -54.6605  -30.2021   11.3659 S.3       14 UNK        -0.2313 
     17 C17       -54.1928  -31.4571   12.6028 C.3       14 UNK        -0.0915 
     18 CA        -55.0635  -31.3893   13.8824 C.3       13 UNK         0.0968 
     19 C         -54.7666  -32.6052   14.8034 C.2       13 UNK         0.5732 
     20 N         -55.4748  -33.7111   14.6190 N.am      13 UNK        -0.7310 
     21 O         -53.8750  -32.5685   15.6501 O.2       13 UNK        -0.5035 
     22 N         -54.9071  -30.1041   14.5794 N.am      13 UNK        -0.4233 
     23 C         -55.6712  -29.6961   15.6007 C.2       13 UNK         0.4989 
     24 O         -56.6512  -30.3176   16.0152 O.2       13 UNK        -0.4996 
     25 CA        -55.2835  -28.3765   16.2904 C.3       12 UNK         0.0216 
     26 CB        -54.4515  -28.6658   17.5469 C.3       12 UNK        -0.1964 
     27 N         -54.5597  -27.4359   15.4273 N.am      12 UNK        -0.4276 
     28 C         -55.1274  -26.7631   14.4166 C.2       12 UNK         0.5020 
     29 O         -56.3097  -26.8923   14.0912 O.2       12 UNK        -0.5489 
     30 CA        -54.2213  -25.7730   13.6629 C.3       11 UNK         0.0294 
     31 CB        -54.9694  -24.9896   12.5618 C.3       11 UNK        -0.2019 
     32 N         -53.5195  -24.8591   14.5722 N.am      11 UNK        -0.4493 
     33 C         -54.0566  -23.9400   15.3897 C.2       11 UNK         0.4932 
     34 O         -55.2642  -23.7156   15.4864 O.2       11 UNK        -0.5029 
     35 CA        -53.0515  -23.1305   16.2336 C.3       10 UNK         0.0280 
     36 CB        -53.7247  -22.1662   17.2342 C.3       10 UNK        -0.1976 
     37 N         -52.0680  -23.9909   16.9005 N.am      10 UNK        -0.4242 
     38 C         -52.3046  -24.9340   17.8278 C.2       10 UNK         0.5072 
     39 O         -53.4104  -25.1547   18.3236 O.2       10 UNK        -0.5224 
     40 CA        -51.0848  -25.7799   18.2553 C.3       9 UNK         0.0343 
     41 CB        -51.4487  -27.0522   19.0463 C.3       9 UNK        -0.2003 
     42 N         -50.1911  -26.1137   17.1401 N.am      9 UNK        -0.4272 
     43 C         -50.5193  -26.6860   15.9712 C.2       9 UNK         0.4988 
     44 O         -51.6498  -27.0845   15.6751 O.2       9 UNK        -0.5108 
     45 CA        -49.3844  -26.7612   14.9347 C.3       8 UNK         0.0248 
     46 CB        -49.3696  -28.1347   14.2444 C.3       8 UNK        -0.2001 
     47 N         -49.4453  -25.6987   13.9188 N.am      8 UNK        -0.4140 
     48 C         -49.5580  -24.3769   14.1417 C.2       8 UNK         0.5028 
     49 O         -49.6798  -23.8818   15.2639 O.2       8 UNK        -0.5428 
     50 CA        -49.5153  -23.4122   12.9386 C.3       7 UNK         0.0264 
     51 CB        -48.2776  -22.5036   13.0296 C.3       7 UNK        -0.1988 
     52 N         -49.5347  -24.0433   11.6171 N.am      7 UNK        -0.4454 
     53 C         -50.5785  -24.6937   11.0858 C.2       7 UNK         0.5027 
     54 O         -51.6407  -24.8592   11.6825 O.2       7 UNK        -0.5083 
     55 CA        -50.3723  -25.3140    9.6871 C.3       6 UNK         0.0844 
     56 C56       -50.6306  -24.3044    8.5352 C.3       14 UNK        -0.0967 
     57 S57       -52.3395  -23.9860    7.9407 S.3       14 UNK        -0.2604 
     58 C58       -53.5182  -25.0276    8.8744 C.3       14 UNK         0.0134 
     59 N         -49.0540  -25.9383    9.5571 N.am      6 UNK        -0.4116 
     60 C         -48.6142  -26.9817   10.2733 C.2       5 UNK         0.5034 
     61 O         -49.2849  -27.5606   11.1254 O.2       5 UNK        -0.5045 
     62 CA        -47.1679  -27.4307   10.0196 C.3       5 UNK         0.0224 
     63 CB        -47.0906  -28.3857    8.8170 C.3       5 UNK        -0.1978 
     64 N         -46.2844  -26.2834    9.8002 N.am      5 UNK        -0.4737 
     65 C         -45.8039  -25.5071   10.7815 C.2       4 UNK         0.5027 
     66 O         -45.9821  -25.7300   11.9786 O.2       4 UNK        -0.5211 
     67 CA        -45.0035  -24.2617   10.3590 C.3       4 UNK         0.0297 
     68 CB        -43.5125  -24.6052   10.2139 C.3       4 UNK        -0.1993 
     69 N         -45.4865  -23.6515    9.1163 N.am      4 UNK        -0.4486 
     70 C         -46.6838  -23.0659    8.9738 C.2       3 UNK         0.4961 
     71 O         -47.5107  -22.9664    9.8789 O.2       3 UNK        -0.5105 
     72 CA        -47.0456  -22.5550    7.5676 C.3       3 UNK         0.0299 
     73 CB        -46.4708  -21.1479    7.3419 C.3       3 UNK        -0.1972 
     74 N         -46.6279  -23.4423    6.4736 N.am      3 UNK        -0.4305 
     75 C         -46.9627  -24.7353    6.3651 C.2       2 UNK         0.5006 
     76 O         -47.5909  -25.3517    7.2276 O.2       2 UNK        -0.5106 
     77 CA        -46.4718  -25.4774    5.1129 C.3       2 UNK         0.0296 
     78 CB        -45.0299  -25.9695    5.3181 C.3       2 UNK        -0.2002 
     79 N         -47.3231  -26.6306    4.8194 N.am      2 UNK        -0.4032 
     80 C         -48.5896  -26.5772    4.3888 C.2       1 UNK         0.5000 
     81 O         -49.1497  -25.5309    4.0551 O.2       1 UNK        -0.5238 
     82 H82       -45.9235  -30.6485    3.2415 H         1 UNK         0.0889 
     83 H83       -47.5036  -31.0001    2.5373 H         1 UNK         0.0889 
     84 H84       -47.0282  -31.7577    4.0584 H         1 UNK         0.0889 
     85 H85       -48.9181  -29.3287    2.8248 H         1 UNK         0.3028 
     86 H86       -50.1688  -27.7310    3.5809 H         1 UNK         0.0864 
     87 H87       -49.3055  -28.4100    6.4356 H         1 UNK         0.0720 
     88 H88       -50.6379  -27.3822    6.0009 H         1 UNK         0.0720 
     89 H89       -53.5320  -29.7799    5.6151 H         1 UNK         0.0814 
     90 H90       -52.9596  -28.2393    5.0256 H         1 UNK         0.0814 
     91 H91       -53.2138  -26.3981    6.5128 H         1 UNK         0.1469 
     92 H92       -53.4390  -26.9811   10.7548 H         1 UNK         0.1381 
     93 H93       -52.7951  -30.3338    8.1663 H         1 UNK         0.1206 
     94 H94       -52.5052  -29.1474   11.6167 H         1 UNK         0.0813 
     95 H95       -52.4127  -30.5391   10.5636 H         1 UNK         0.0813 
     96 H96       -53.1372  -31.3494   12.8601 H         1 UNK         0.0638 
     97 H97       -54.2910  -32.4326   12.1226 H         1 UNK         0.0638 
     98 H98       -56.1101  -31.4581   13.5782 H         1 UNK         0.0568 
     99 H99       -55.2855  -34.5151   15.1967 H         1 UNK         0.3450 
    100 H100      -56.1992  -33.7566   13.9193 H         1 UNK         0.3450 
    101 H101      -54.1145  -29.5418   14.3124 H         1 UNK         0.2987 
    102 H102      -56.2105  -27.8933   16.6068 H         1 UNK         0.0766 
    103 H103      -54.2656  -27.7530   18.1122 H         1 UNK         0.0798 
    104 H104      -53.4920  -29.1190   17.2951 H         1 UNK         0.0798 
    105 H105      -54.9727  -29.3547   18.2133 H         1 UNK         0.0798 
    106 H106      -53.5727  -27.2800   15.6256 H         1 UNK         0.3198 
    107 H107      -53.4480  -26.3702   13.1772 H         1 UNK         0.0843 
    108 H108      -54.3125  -24.2729   12.0707 H         1 UNK         0.0831 
    109 H109      -55.8213  -24.4387   12.9611 H         1 UNK         0.0831 
    110 H110      -55.3519  -25.6647   11.7955 H         1 UNK         0.0831 
    111 H111      -52.5188  -24.9929   14.6135 H         1 UNK         0.3133 
    112 H112      -52.4857  -22.5211   15.5271 H         1 UNK         0.0566 
    113 H113      -52.9844  -21.5982   17.7974 H         1 UNK         0.0814 
    114 H114      -54.3577  -21.4464   16.7139 H         1 UNK         0.0814 
    115 H115      -54.3571  -22.6947   17.9481 H         1 UNK         0.0814 
    116 H116      -51.1212  -23.9249   16.5297 H         1 UNK         0.3091 
    117 H117      -50.5118  -25.1371   18.9252 H         1 UNK         0.0702 
    118 H118      -52.1347  -26.8348   19.8659 H         1 UNK         0.0785 
    119 H119      -50.5600  -27.5061   19.4844 H         1 UNK         0.0785 
    120 H120      -51.9161  -27.7999   18.4096 H         1 UNK         0.0785 
    121 H121      -49.2435  -25.7754   17.2378 H         1 UNK         0.2998 
    122 H122      -48.4334  -26.6479   15.4587 H         1 UNK         0.0697 
    123 H123      -50.2509  -28.2804   13.6178 H         1 UNK         0.0825 
    124 H124      -49.3540  -28.9427   14.9771 H         1 UNK         0.0825 
    125 H125      -48.4866  -28.2532   13.6164 H         1 UNK         0.0825 
    126 H126      -49.3807  -26.0076   12.9579 H         1 UNK         0.3029 
    127 H127      -50.4039  -22.7820   13.0153 H         1 UNK         0.0897 
    128 H128      -48.2912  -21.7367   12.2548 H         1 UNK         0.0792 
    129 H129      -48.2328  -21.9876   13.9897 H         1 UNK         0.0792 
    130 H130      -47.3538  -23.0736   12.9200 H         1 UNK         0.0792 
    131 H131      -48.7103  -23.8969   11.0383 H         1 UNK         0.3086 
    132 H132      -51.0567  -26.1467    9.5961 H         1 UNK         0.0583 
    133 H133      -50.1693  -23.3419    8.7647 H         1 UNK         0.1020 
    134 H134      -50.1063  -24.6509    7.6433 H         1 UNK         0.1020 
    135 H135      -53.4548  -24.7726    9.9299 H         1 UNK         0.0694 
    136 H136      -54.5275  -24.7536    8.5656 H         1 UNK         0.0694 
    137 H137      -48.4472  -25.5741    8.8259 H         1 UNK         0.2989 
    138 H138      -46.8301  -27.9731   10.9059 H         1 UNK         0.1055 
    139 H139      -47.7431  -29.2480    8.9608 H         1 UNK         0.0806 
    140 H140      -46.0788  -28.7660    8.6765 H         1 UNK         0.0806 
    141 H141      -47.3947  -27.9023    7.8887 H         1 UNK         0.0806 
    142 H142      -46.1491  -25.9928    8.8411 H         1 UNK         0.3061 
    143 H143      -45.1072  -23.5212   11.1554 H         1 UNK         0.0734 
    144 H144      -42.9183  -23.7164   10.0011 H         1 UNK         0.0832 
    145 H145      -43.1222  -25.0400   11.1352 H         1 UNK         0.0832 
    146 H146      -43.3386  -25.3270    9.4147 H         1 UNK         0.0832 
    147 H147      -44.8751  -23.6936    8.3141 H         1 UNK         0.3156 
    148 H148      -48.1340  -22.4838    7.5209 H         1 UNK         0.0589 
    149 H149      -45.3801  -21.1523    7.3275 H         1 UNK         0.0808 
    150 H150      -46.8181  -20.7228    6.4000 H         1 UNK         0.0808 
    151 H151      -46.7832  -20.4672    8.1354 H         1 UNK         0.0808 
    152 H152      -46.0929  -23.0181    5.7290 H         1 UNK         0.3098 
    153 H153      -46.5039  -24.7960    4.2604 H         1 UNK         0.0720 
    154 H154      -44.6594  -26.4872    4.4330 H         1 UNK         0.0791 
    155 H155      -44.9552  -26.6573    6.1620 H         1 UNK         0.0791 
    156 H156      -44.3514  -25.1378    5.5120 H         1 UNK         0.0791 
    157 H157      -46.9836  -27.5448    5.1102 H         1 UNK         0.3028 
@<TRIPOS>BOND
     1    1    2 1    
     2    1   82 1    
     3    1   83 1    
     4    1   84 1    
     5    2    3 2    
     6    2    4 am   BACKBONE|DICT|INTERRES
     7    4    5 1    
     8    4   85 1    
     9    5    6 1    
    10    5   80 1    
    11    5   86 1    
    12    6    7 1    
    13    6   87 1    
    14    6   88 1    
    15    7    8 1    
    16    8    9 1    
    17    8   89 1    
    18    8   90 1    
    19    9   10 ar   
    20    9   14 ar   
    21   10   11 ar   
    22   10   91 1    
    23   11   12 ar   
    24   11   58 1    
    25   12   13 ar   
    26   12   92 1    
    27   13   14 ar   
    28   13   15 1    
    29   14   93 1    
    30   15   16 1    
    31   15   94 1    
    32   15   95 1    
    33   16   17 1    
    34   17   18 1    
    35   17   96 1    
    36   17   97 1    
    37   18   19 1    
    38   18   22 1    
    39   18   98 1    
    40   19   20 am   BACKBONE|DICT|INTERRES
    41   19   21 2    
    42   20   99 1    
    43   20  100 1    
    44   22   23 am   BACKBONE|DICT|INTERRES
    45   22  101 1    
    46   23   24 2    
    47   23   25 1    
    48   25   26 1    
    49   25   27 1    
    50   25  102 1    
    51   26  103 1    
    52   26  104 1    
    53   26  105 1    
    54   27   28 am   BACKBONE|DICT|INTERRES
    55   27  106 1    
    56   28   29 2    
    57   28   30 1    
    58   30   31 1    
    59   30   32 1    
    60   30  107 1    
    61   31  108 1    
    62   31  109 1    
    63   31  110 1    
    64   32   33 am   BACKBONE|DICT|INTERRES
    65   32  111 1    
    66   33   34 2    
    67   33   35 1    
    68   35   36 1    
    69   35   37 1    
    70   35  112 1    
    71   36  113 1    
    72   36  114 1    
    73   36  115 1    
    74   37   38 am   BACKBONE|DICT|INTERRES
    75   37  116 1    
    76   38   39 2    
    77   38   40 1    
    78   40   41 1    
    79   40   42 1    
    80   40  117 1    
    81   41  118 1    
    82   41  119 1    
    83   41  120 1    
    84   42   43 am   BACKBONE|DICT|INTERRES
    85   42  121 1    
    86   43   44 2    
    87   43   45 1    
    88   45   46 1    
    89   45   47 1    
    90   45  122 1    
    91   46  123 1    
    92   46  124 1    
    93   46  125 1    
    94   47   48 am   BACKBONE|DICT|INTERRES
    95   47  126 1    
    96   48   49 2    
    97   48   50 1    
    98   50   51 1    
    99   50   52 1    
   100   50  127 1    
   101   51  128 1    
   102   51  129 1    
   103   51  130 1    
   104   52   53 am   BACKBONE|DICT|INTERRES
   105   52  131 1    
   106   53   54 2    
   107   53   55 1    
   108   55   56 1    
   109   55   59 1    
   110   55  132 1    
   111   56   57 1    
   112   56  133 1    
   113   56  134 1    
   114   57   58 1    
   115   58  135 1    
   116   58  136 1    
   117   59   60 am   BACKBONE|DICT|INTERRES
   118   59  137 1    
   119   60   61 2    
   120   60   62 1    
   121   62   63 1    
   122   62   64 1    
   123   62  138 1    
   124   63  139 1    
   125   63  140 1    
   126   63  141 1    
   127   64   65 am   BACKBONE|DICT|INTERRES
   128   64  142 1    
   129   65   66 2    
   130   65   67 1    
   131   67   68 1    
   132   67   69 1    
   133   67  143 1    
   134   68  144 1    
   135   68  145 1    
   136   68  146 1    
   137   69   70 am   BACKBONE|DICT|INTERRES
   138   69  147 1    
   139   70   71 2    
   140   70   72 1    
   141   72   73 1    
   142   72   74 1    
   143   72  148 1    
   144   73  149 1    
   145   73  150 1    
   146   73  151 1    
   147   74   75 am   BACKBONE|DICT|INTERRES
   148   74  152 1    
   149   75   76 2    
   150   75   77 1    
   151   77   78 1    
   152   77   79 1    
   153   77  153 1    
   154   78  154 1    
   155   78  155 1    
   156   78  156 1    
   157   79   80 am   BACKBONE|DICT|INTERRES
   158   79  157 1    
   159   80   81 2    
@<TRIPOS>SUBSTRUCTURE
     1 UNK         1 GROUP             0       ****    0 ROOT    
