@<TRIPOS>MOLECULE
3R207
157   159    1
SMALL
USER_CHARGES


@<TRIPOS>ATOM
      1 CA        -46.0815  -30.5688   12.1521 C.3       0 UNK        -0.1975 
      2 C         -46.7647  -30.1584   10.8560 C.2       0 UNK         0.4852 
      3 O         -46.3566  -30.5999    9.7807 O.2       0 UNK        -0.5216 
      4 N         -47.8037  -29.3193   10.9484 N.am      1 UNK        -0.4461 
      5 CA        -48.5427  -28.7758    9.8076 C.3       1 UNK         0.0864 
      6 C6        -49.9507  -28.2724   10.2141 C.3       14 UNK        -0.0898 
      7 S7        -51.0414  -29.6331   10.7388 S.3       14 UNK        -0.2598 
      8 C8        -51.9035  -30.0442    9.1841 C.3       14 UNK         0.0286 
      9 C9        -52.8919  -28.9616    8.7728 C.ar      14 UNK        -0.0844 
     10 C10       -52.6133  -28.1085    7.7000 C.ar      14 UNK        -0.0881 
     11 C11       -53.5082  -27.0910    7.3472 C.ar      14 UNK        -0.0643 
     12 C12       -54.6956  -26.9426    8.0732 C.ar      14 UNK        -0.0930 
     13 C13       -54.9959  -27.8054    9.1319 C.ar      14 UNK        -0.0827 
     14 C14       -54.0940  -28.8170    9.4683 C.ar      14 UNK        -0.1249 
     15 C15       -56.2864  -27.6462    9.9219 C.3       14 UNK         0.0141 
     16 S16       -55.9504  -26.8993   11.5430 S.3       14 UNK        -0.2313 
     17 C17       -57.6280  -26.6861   12.2286 C.3       14 UNK        -0.0915 
     18 CA        -57.9996  -27.7175   13.3300 C.3       13 UNK         0.0968 
     19 C         -58.4191  -29.0998   12.7436 C.2       13 UNK         0.5732 
     20 N         -57.8907  -30.2262   13.2084 N.am      13 UNK        -0.7310 
     21 O         -59.2617  -29.1545   11.8509 O.2       13 UNK        -0.5035 
     22 N         -56.9704  -27.7757   14.3782 N.am      13 UNK        -0.4233 
     23 C         -57.1730  -28.1263   15.6537 C.2       13 UNK         0.4989 
     24 O         -58.2857  -28.3281   16.1433 O.2       13 UNK        -0.4996 
     25 CA        -55.8991  -28.3099   16.5033 C.3       12 UNK         0.0216 
     26 CB        -56.1627  -28.9927   17.8620 C.3       12 UNK        -0.1964 
     27 N         -54.8430  -29.0083   15.7582 N.am      12 UNK        -0.4276 
     28 C         -54.9056  -30.2334   15.2137 C.2       12 UNK         0.5020 
     29 O         -55.8691  -30.9902   15.3370 O.2       12 UNK        -0.5489 
     30 CA        -53.7323  -30.6727   14.3250 C.3       11 UNK         0.0294 
     31 CB        -54.1107  -30.4837   12.8487 C.3       11 UNK        -0.2019 
     32 N         -52.5086  -29.9155   14.5971 N.am      11 UNK        -0.4493 
     33 C         -51.4886  -30.3574   15.3455 C.2       11 UNK         0.4932 
     34 O         -51.4471  -31.4745   15.8616 O.2       11 UNK        -0.5029 
     35 CA        -50.3108  -29.3880   15.5639 C.3       10 UNK         0.0280 
     36 CB        -49.2643  -29.5562   14.4504 C.3       10 UNK        -0.1976 
     37 N         -50.7231  -27.9841   15.6293 N.am      10 UNK        -0.4242 
     38 C         -51.4885  -27.4505   16.5925 C.2       10 UNK         0.5072 
     39 O         -51.8654  -28.0658   17.5898 O.2       10 UNK        -0.5224 
     40 CA        -51.9413  -25.9917   16.3981 C.3       9 UNK         0.0343 
     41 CB        -51.0238  -25.0372   17.1784 C.3       9 UNK        -0.2003 
     42 N         -52.0091  -25.5520   14.9996 N.am      9 UNK        -0.4272 
     43 C         -52.7565  -26.0933   14.0300 C.2       9 UNK         0.4988 
     44 O         -53.4508  -27.0971   14.1936 O.2       9 UNK        -0.5108 
     45 CA        -52.7072  -25.4331   12.6407 C.3       8 UNK         0.0248 
     46 CB        -53.6743  -24.2356   12.5702 C.3       8 UNK        -0.2001 
     47 N         -51.3659  -25.0618   12.1637 N.am      8 UNK        -0.4140 
     48 C         -50.5091  -24.1488   12.6491 C.2       8 UNK         0.5028 
     49 O         -50.7056  -23.4912   13.6718 O.2       8 UNK        -0.5428 
     50 CA        -49.1975  -23.9443   11.8715 C.3       7 UNK         0.0264 
     51 CB        -48.0628  -24.7553   12.5166 C.3       7 UNK        -0.1988 
     52 N         -49.2976  -24.3031   10.4542 N.am      7 UNK        -0.4454 
     53 C         -50.0017  -23.6231    9.5402 C.2       7 UNK         0.5027 
     54 O         -50.6229  -22.5855    9.7791 O.2       7 UNK        -0.5083 
     55 CA        -50.0353  -24.2139    8.1192 C.3       6 UNK         0.0844 
     56 C56       -51.4876  -24.5144    7.6775 C.3       14 UNK        -0.0967 
     57 S57       -51.5219  -25.4969    6.1428 S.3       14 UNK        -0.2604 
     58 C58       -53.2209  -26.1631    6.1688 C.3       14 UNK         0.0134 
     59 N         -49.3410  -23.3195    7.1904 N.am      6 UNK        -0.4116 
     60 C         -48.0138  -23.1486    7.1676 C.2       5 UNK         0.5034 
     61 O         -47.2393  -23.7851    7.8858 O.2       5 UNK        -0.5045 
     62 CA        -47.4425  -22.1504    6.1403 C.3       5 UNK         0.0224 
     63 CB        -48.3366  -20.9102    5.9100 C.3       5 UNK        -0.1978 
     64 N         -46.0600  -21.7833    6.4822 N.am      5 UNK        -0.4737 
     65 C         -45.6424  -21.0323    7.5131 C.2       4 UNK         0.5027 
     66 O         -46.3756  -20.3377    8.2190 O.2       4 UNK        -0.5211 
     67 CA        -44.1381  -21.1457    7.8242 C.3       4 UNK         0.0297 
     68 CB        -43.6343  -20.0804    8.8226 C.3       4 UNK        -0.1993 
     69 N         -43.8126  -22.5096    8.2703 N.am      4 UNK        -0.4486 
     70 C         -44.2538  -23.1309    9.3764 C.2       3 UNK         0.4961 
     71 O         -44.9087  -22.5934   10.2706 O.2       3 UNK        -0.5105 
     72 CA        -43.9595  -24.6331    9.4552 C.3       3 UNK         0.0299 
     73 CB        -43.9380  -25.1655   10.9033 C.3       3 UNK        -0.1972 
     74 N         -44.9863  -25.3136    8.6721 N.am      3 UNK        -0.4305 
     75 C         -44.9155  -26.5616    8.2012 C.2       2 UNK         0.5006 
     76 O         -43.9626  -27.3200    8.3933 O.2       2 UNK        -0.5106 
     77 CA        -46.1136  -27.0470    7.3670 C.3       2 UNK         0.0296 
     78 CB        -45.6563  -27.7158    6.0589 C.3       2 UNK        -0.2002 
     79 N         -46.9453  -27.9826    8.1223 N.am      2 UNK        -0.4032 
     80 C         -47.7219  -27.6473    9.1604 C.2       1 UNK         0.5000 
     81 O         -47.8148  -26.5053    9.6132 O.2       1 UNK        -0.5238 
     82 H82       -46.1805  -31.6433   12.3038 H         1 UNK         0.0889 
     83 H83       -46.5081  -30.0626   13.0176 H         1 UNK         0.0889 
     84 H84       -45.0199  -30.3268   12.1086 H         1 UNK         0.0889 
     85 H85       -48.0870  -28.9758   11.8532 H         1 UNK         0.3028 
     86 H86       -48.6751  -29.5654    9.0642 H         1 UNK         0.0864 
     87 H87       -50.4234  -27.7310    9.3936 H         1 UNK         0.0720 
     88 H88       -49.8811  -27.5619   11.0394 H         1 UNK         0.0720 
     89 H89       -51.1698  -30.2237    8.3969 H         1 UNK         0.0814 
     90 H90       -52.4397  -30.9846    9.3198 H         1 UNK         0.0814 
     91 H91       -51.6940  -28.2282    7.1434 H         1 UNK         0.1469 
     92 H92       -55.3924  -26.1587    7.8095 H         1 UNK         0.1381 
     93 H93       -54.3213  -29.4836   10.2865 H         1 UNK         0.1206 
     94 H94       -56.7593  -28.6197   10.0593 H         1 UNK         0.0813 
     95 H95       -56.9980  -27.0259    9.3749 H         1 UNK         0.0813 
     96 H96       -57.6663  -25.6842   12.6585 H         1 UNK         0.0638 
     97 H97       -58.3641  -26.6787   11.4228 H         1 UNK         0.0638 
     98 H98       -58.9096  -27.3411   13.8006 H         1 UNK         0.0568 
     99 H99       -57.2303  -30.2306   13.9758 H         1 UNK         0.3450 
    100 H100      -58.1933  -31.1006   12.8110 H         1 UNK         0.3450 
    101 H101      -56.0222  -27.6343   14.0569 H         1 UNK         0.2987 
    102 H102      -55.5196  -27.3070   16.7050 H         1 UNK         0.0766 
    103 H103      -55.2426  -29.0936   18.4379 H         1 UNK         0.0798 
    104 H104      -56.8595  -28.4083   18.4640 H         1 UNK         0.0798 
    105 H105      -56.5933  -29.9871   17.7406 H         1 UNK         0.0798 
    106 H106      -54.0558  -28.4275   15.4879 H         1 UNK         0.3198 
    107 H107      -53.5672  -31.7379   14.5009 H         1 UNK         0.0843 
    108 H108      -53.3342  -30.8727   12.1911 H         1 UNK         0.0831 
    109 H109      -54.2641  -29.4309   12.6077 H         1 UNK         0.0831 
    110 H110      -55.0324  -31.0138   12.6048 H         1 UNK         0.0831 
    111 H111      -52.4732  -28.9728   14.2276 H         1 UNK         0.3133 
    112 H112      -49.8419  -29.6441   16.5164 H         1 UNK         0.0566 
    113 H113      -49.6726  -29.2948   13.4739 H         1 UNK         0.0814 
    114 H114      -48.9199  -30.5899   14.3926 H         1 UNK         0.0814 
    115 H115      -48.3882  -28.9331   14.6311 H         1 UNK         0.0814 
    116 H116      -50.4521  -27.3895   14.8605 H         1 UNK         0.3091 
    117 H117      -52.9492  -25.9114   16.8103 H         1 UNK         0.0702 
    118 H118      -50.0067  -25.0446   16.7845 H         1 UNK         0.0785 
    119 H119      -50.9698  -25.3180   18.2313 H         1 UNK         0.0785 
    120 H120      -51.3914  -24.0116   17.1365 H         1 UNK         0.0785 
    121 H121      -51.4742  -24.7215   14.7480 H         1 UNK         0.2998 
    122 H122      -53.0645  -26.1845   11.9345 H         1 UNK         0.0697 
    123 H123      -54.6784  -24.5238   12.8833 H         1 UNK         0.0825 
    124 H124      -53.7509  -23.8510   11.5532 H         1 UNK         0.0825 
    125 H125      -53.3606  -23.4155   13.2165 H         1 UNK         0.0825 
    126 H126      -51.0649  -25.5531   11.3352 H         1 UNK         0.3029 
    127 H127      -48.9419  -22.8843   11.9347 H         1 UNK         0.0897 
    128 H128      -47.1107  -24.5455   12.0302 H         1 UNK         0.0792 
    129 H129      -47.9497  -24.5035   13.5720 H         1 UNK         0.0792 
    130 H130      -48.2423  -25.8291   12.4509 H         1 UNK         0.0792 
    131 H131      -48.7466  -25.1073   10.1464 H         1 UNK         0.3086 
    132 H132      -49.4980  -25.1641    8.1305 H         1 UNK         0.0583 
    133 H133      -52.0107  -25.0722    8.4569 H         1 UNK         0.1020 
    134 H134      -52.0546  -23.5932    7.5291 H         1 UNK         0.1020 
    135 H135      -53.9190  -25.3245    6.1580 H         1 UNK         0.0694 
    136 H136      -53.3912  -26.7164    5.2444 H         1 UNK         0.0694 
    137 H137      -49.9224  -22.7693    6.5768 H         1 UNK         0.2989 
    138 H138      -47.3824  -22.6936    5.1957 H         1 UNK         0.1055 
    139 H139      -47.8358  -20.1736    5.2816 H         1 UNK         0.0806 
    140 H140      -48.6069  -20.4203    6.8461 H         1 UNK         0.0806 
    141 H141      -49.2641  -21.1786    5.4034 H         1 UNK         0.0806 
    142 H142      -45.3552  -22.3207    5.9967 H         1 UNK         0.3061 
    143 H143      -43.6056  -20.9852    6.8852 H         1 UNK         0.0734 
    144 H144      -43.8008  -19.0764    8.4306 H         1 UNK         0.0832 
    145 H145      -44.1474  -20.1378    9.7828 H         1 UNK         0.0832 
    146 H146      -42.5652  -20.1840    9.0073 H         1 UNK         0.0832 
    147 H147      -43.2937  -23.0666    7.6047 H         1 UNK         0.3156 
    148 H148      -42.9818  -24.8149    9.0039 H         1 UNK         0.0589 
    149 H149      -44.9180  -25.0909   11.3739 H         1 UNK         0.0808 
    150 H150      -43.6314  -26.2107   10.9399 H         1 UNK         0.0808 
    151 H151      -43.2349  -24.6004   11.5163 H         1 UNK         0.0808 
    152 H152      -45.8246  -24.7622    8.4756 H         1 UNK         0.3098 
    153 H153      -46.7305  -26.1891    7.0960 H         1 UNK         0.0720 
    154 H154      -45.0729  -28.6183    6.2462 H         1 UNK         0.0791 
    155 H155      -46.5075  -27.9901    5.4353 H         1 UNK         0.0791 
    156 H156      -45.0317  -27.0393    5.4741 H         1 UNK         0.0791 
    157 H157      -46.8560  -28.9610    7.8853 H         1 UNK         0.3028 
@<TRIPOS>BOND
     1    1    2 1    
     2    1   82 1    
     3    1   83 1    
     4    1   84 1    
     5    2    3 2    
     6    2    4 am   BACKBONE|DICT|INTERRES
     7    4    5 1    
     8    4   85 1    
     9    5    6 1    
    10    5   80 1    
    11    5   86 1    
    12    6    7 1    
    13    6   87 1    
    14    6   88 1    
    15    7    8 1    
    16    8    9 1    
    17    8   89 1    
    18    8   90 1    
    19    9   10 ar   
    20    9   14 ar   
    21   10   11 ar   
    22   10   91 1    
    23   11   12 ar   
    24   11   58 1    
    25   12   13 ar   
    26   12   92 1    
    27   13   14 ar   
    28   13   15 1    
    29   14   93 1    
    30   15   16 1    
    31   15   94 1    
    32   15   95 1    
    33   16   17 1    
    34   17   18 1    
    35   17   96 1    
    36   17   97 1    
    37   18   19 1    
    38   18   22 1    
    39   18   98 1    
    40   19   20 am   BACKBONE|DICT|INTERRES
    41   19   21 2    
    42   20   99 1    
    43   20  100 1    
    44   22   23 am   BACKBONE|DICT|INTERRES
    45   22  101 1    
    46   23   24 2    
    47   23   25 1    
    48   25   26 1    
    49   25   27 1    
    50   25  102 1    
    51   26  103 1    
    52   26  104 1    
    53   26  105 1    
    54   27   28 am   BACKBONE|DICT|INTERRES
    55   27  106 1    
    56   28   29 2    
    57   28   30 1    
    58   30   31 1    
    59   30   32 1    
    60   30  107 1    
    61   31  108 1    
    62   31  109 1    
    63   31  110 1    
    64   32   33 am   BACKBONE|DICT|INTERRES
    65   32  111 1    
    66   33   34 2    
    67   33   35 1    
    68   35   36 1    
    69   35   37 1    
    70   35  112 1    
    71   36  113 1    
    72   36  114 1    
    73   36  115 1    
    74   37   38 am   BACKBONE|DICT|INTERRES
    75   37  116 1    
    76   38   39 2    
    77   38   40 1    
    78   40   41 1    
    79   40   42 1    
    80   40  117 1    
    81   41  118 1    
    82   41  119 1    
    83   41  120 1    
    84   42   43 am   BACKBONE|DICT|INTERRES
    85   42  121 1    
    86   43   44 2    
    87   43   45 1    
    88   45   46 1    
    89   45   47 1    
    90   45  122 1    
    91   46  123 1    
    92   46  124 1    
    93   46  125 1    
    94   47   48 am   BACKBONE|DICT|INTERRES
    95   47  126 1    
    96   48   49 2    
    97   48   50 1    
    98   50   51 1    
    99   50   52 1    
   100   50  127 1    
   101   51  128 1    
   102   51  129 1    
   103   51  130 1    
   104   52   53 am   BACKBONE|DICT|INTERRES
   105   52  131 1    
   106   53   54 2    
   107   53   55 1    
   108   55   56 1    
   109   55   59 1    
   110   55  132 1    
   111   56   57 1    
   112   56  133 1    
   113   56  134 1    
   114   57   58 1    
   115   58  135 1    
   116   58  136 1    
   117   59   60 am   BACKBONE|DICT|INTERRES
   118   59  137 1    
   119   60   61 2    
   120   60   62 1    
   121   62   63 1    
   122   62   64 1    
   123   62  138 1    
   124   63  139 1    
   125   63  140 1    
   126   63  141 1    
   127   64   65 am   BACKBONE|DICT|INTERRES
   128   64  142 1    
   129   65   66 2    
   130   65   67 1    
   131   67   68 1    
   132   67   69 1    
   133   67  143 1    
   134   68  144 1    
   135   68  145 1    
   136   68  146 1    
   137   69   70 am   BACKBONE|DICT|INTERRES
   138   69  147 1    
   139   70   71 2    
   140   70   72 1    
   141   72   73 1    
   142   72   74 1    
   143   72  148 1    
   144   73  149 1    
   145   73  150 1    
   146   73  151 1    
   147   74   75 am   BACKBONE|DICT|INTERRES
   148   74  152 1    
   149   75   76 2    
   150   75   77 1    
   151   77   78 1    
   152   77   79 1    
   153   77  153 1    
   154   78  154 1    
   155   78  155 1    
   156   78  156 1    
   157   79   80 am   BACKBONE|DICT|INTERRES
   158   79  157 1    
   159   80   81 2    
@<TRIPOS>SUBSTRUCTURE
     1 UNK         1 GROUP             0       ****    0 ROOT    
