@<TRIPOS>MOLECULE
3R207
157   159    1
SMALL
USER_CHARGES


@<TRIPOS>ATOM
      1 CA        -48.3024  -32.6017    6.5617 C.3       0 UNK        -0.1975 
      2 C         -48.3879  -31.0952    6.3703 C.2       0 UNK         0.4852 
      3 O         -48.6425  -30.3740    7.3347 O.2       0 UNK        -0.5216 
      4 N         -48.1618  -30.6192    5.1372 N.am      1 UNK        -0.4461 
      5 CA        -48.2256  -29.2246    4.6619 C.3       1 UNK         0.0864 
      6 C6        -49.6040  -28.5431    4.8614 C.3       14 UNK        -0.0898 
      7 S7        -50.9774  -29.4314    4.0525 S.3       14 UNK        -0.2598 
      8 C8        -52.0318  -29.8479    5.4878 C.3       14 UNK         0.0286 
      9 C9        -52.7294  -28.6756    6.1879 C.ar      14 UNK        -0.0844 
     10 C10       -52.5587  -27.3367    5.8080 C.ar      14 UNK        -0.0881 
     11 C11       -53.1931  -26.3032    6.5021 C.ar      14 UNK        -0.0643 
     12 C12       -54.0296  -26.6159    7.5778 C.ar      14 UNK        -0.0930 
     13 C13       -54.2221  -27.9450    7.9695 C.ar      14 UNK        -0.0827 
     14 C14       -53.5732  -28.9646    7.2649 C.ar      14 UNK        -0.1249 
     15 C15       -55.1657  -28.2685    9.1249 C.3       14 UNK         0.0141 
     16 S16       -54.4558  -29.4241   10.3460 S.3       14 UNK        -0.2313 
     17 C17       -55.7754  -29.4199   11.6060 C.3       14 UNK        -0.0915 
     18 CA        -55.4437  -28.4997   12.8205 C.3       13 UNK         0.0968 
     19 C         -56.7113  -27.8447   13.4450 C.2       13 UNK         0.5732 
     20 N         -56.8567  -27.7855   14.7650 N.am      13 UNK        -0.7310 
     21 O         -57.5752  -27.3532   12.7231 O.2       13 UNK        -0.5035 
     22 N         -54.6096  -29.1850   13.8244 N.am      13 UNK        -0.4233 
     23 C         -53.2748  -29.1645   13.8614 C.2       13 UNK         0.4989 
     24 O         -52.5664  -28.6283   13.0088 O.2       13 UNK        -0.4996 
     25 CA        -52.6051  -29.8641   15.0511 C.3       12 UNK         0.0216 
     26 CB        -52.6820  -31.3965   14.9264 C.3       12 UNK        -0.1964 
     27 N         -51.2102  -29.4412   15.0655 N.am      12 UNK        -0.4276 
     28 C         -50.4352  -29.2598   16.1363 C.2       12 UNK         0.5020 
     29 O         -50.7753  -29.5281   17.2897 O.2       12 UNK        -0.5489 
     30 CA        -49.0430  -28.6690   15.8793 C.3       11 UNK         0.0294 
     31 CB        -48.5099  -28.9064   14.4473 C.3       11 UNK        -0.2019 
     32 N         -49.0752  -27.2383   16.1755 N.am      11 UNK        -0.4493 
     33 C         -48.0101  -26.5186   16.5541 C.2       11 UNK         0.4932 
     34 O         -46.8894  -27.0042   16.7136 O.2       11 UNK        -0.5029 
     35 CA        -48.1896  -25.0046   16.7811 C.3       10 UNK         0.0280 
     36 CB        -47.4744  -24.2038   15.6816 C.3       10 UNK        -0.1976 
     37 N         -49.5864  -24.5760   16.8286 N.am      10 UNK        -0.4242 
     38 C         -50.3888  -24.6751   17.8960 C.2       10 UNK         0.5072 
     39 O         -50.0293  -25.1207   18.9863 O.2       10 UNK        -0.5224 
     40 CA        -51.8420  -24.1965   17.7170 C.3       9 UNK         0.0343 
     41 CB        -52.0135  -22.7766   18.2801 C.3       9 UNK        -0.2003 
     42 N         -52.3096  -24.2176   16.3267 N.am      9 UNK        -0.4272 
     43 C         -52.4590  -25.3166   15.5776 C.2       9 UNK         0.4988 
     44 O         -52.1846  -26.4480   15.9735 O.2       9 UNK        -0.5108 
     45 CA        -52.9730  -25.1255   14.1442 C.3       8 UNK         0.0248 
     46 CB        -54.4800  -24.8074   14.1187 C.3       8 UNK        -0.2001 
     47 N         -52.1978  -24.1671   13.3494 N.am      8 UNK        -0.4140 
     48 C         -52.0817  -22.8376   13.4823 C.2       8 UNK         0.5028 
     49 O         -52.6029  -22.1875   14.3898 O.2       8 UNK        -0.5428 
     50 CA        -51.2286  -22.1054   12.4280 C.3       7 UNK         0.0264 
     51 CB        -49.7993  -21.8972   12.9528 C.3       7 UNK        -0.1988 
     52 N         -51.1766  -22.8071   11.1404 N.am      7 UNK        -0.4454 
     53 C         -52.2208  -22.9525   10.3093 C.2       7 UNK         0.5027 
     54 O         -53.3068  -22.3959   10.4770 O.2       7 UNK        -0.5083 
     55 CA        -52.0447  -23.9138    9.1165 C.3       6 UNK         0.0844 
     56 C56       -51.5365  -23.1773    7.8560 C.3       14 UNK        -0.0967 
     57 S57       -51.2942  -24.2713    6.4118 S.3       14 UNK        -0.2604 
     58 C58       -52.9861  -24.8589    6.0576 C.3       14 UNK         0.0134 
     59 N         -51.2194  -25.0703    9.4684 N.am      6 UNK        -0.4116 
     60 C         -51.6125  -26.0614   10.2790 C.2       5 UNK         0.5034 
     61 O         -52.7219  -26.1129   10.8074 O.2       5 UNK        -0.5045 
     62 CA        -50.5651  -27.1401   10.5901 C.3       5 UNK         0.0224 
     63 CB        -50.5295  -28.2039    9.4809 C.3       5 UNK        -0.1978 
     64 N         -49.2326  -26.5609   10.7813 N.am      5 UNK        -0.4737 
     65 C         -48.8863  -25.8365   11.8574 C.2       4 UNK         0.5027 
     66 O         -49.6324  -25.6409   12.8160 O.2       4 UNK        -0.5211 
     67 CA        -47.4893  -25.1899   11.8627 C.3       4 UNK         0.0297 
     68 CB        -46.4752  -26.1152   12.5531 C.3       4 UNK        -0.1993 
     69 N         -46.9986  -24.8346   10.5314 N.am      4 UNK        -0.4486 
     70 C         -47.5866  -23.9664    9.6956 C.2       3 UNK         0.4961 
     71 O         -48.5895  -23.3125    9.9817 O.2       3 UNK        -0.5105 
     72 CA        -46.9868  -23.8523    8.2814 C.3       3 UNK         0.0299 
     73 CB        -46.0121  -22.6670    8.2070 C.3       3 UNK        -0.1972 
     74 N         -46.3113  -25.0751    7.8229 N.am      3 UNK        -0.4305 
     75 C         -46.9102  -26.2669    7.6904 C.2       2 UNK         0.5006 
     76 O         -48.0969  -26.4665    7.9602 O.2       2 UNK        -0.5106 
     77 CA        -46.0222  -27.4450    7.2652 C.3       2 UNK         0.0296 
     78 CB        -45.4383  -28.1445    8.5039 C.3       2 UNK        -0.2002 
     79 N         -46.8226  -28.4067    6.5138 N.am      2 UNK        -0.4032 
     80 C         -47.1144  -28.3056    5.2134 C.2       1 UNK         0.5000 
     81 O         -46.5618  -27.5078    4.4529 O.2       1 UNK        -0.5238 
     82 H82       -48.0686  -33.1198    5.6318 H         1 UNK         0.0889 
     83 H83       -49.2522  -32.9849    6.9337 H         1 UNK         0.0889 
     84 H84       -47.5284  -32.8436    7.2896 H         1 UNK         0.0889 
     85 H85       -47.9305  -31.2845    4.4124 H         1 UNK         0.3028 
     86 H86       -48.0509  -29.2862    3.5863 H         1 UNK         0.0864 
     87 H87       -49.8188  -28.4171    5.9245 H         1 UNK         0.0720 
     88 H88       -49.5881  -27.5346    4.4429 H         1 UNK         0.0720 
     89 H89       -51.4266  -30.3850    6.2196 H         1 UNK         0.0814 
     90 H90       -52.7948  -30.5493    5.1474 H         1 UNK         0.0814 
     91 H91       -51.9266  -27.0739    4.9736 H         1 UNK         0.1469 
     92 H92       -54.5398  -25.8249    8.1087 H         1 UNK         0.1381 
     93 H93       -53.7233  -29.9937    7.5621 H         1 UNK         0.1206 
     94 H94       -55.4489  -27.3534    9.6480 H         1 UNK         0.0813 
     95 H95       -56.0838  -28.6947    8.7185 H         1 UNK         0.0813 
     96 H96       -55.9414  -30.4453   11.9396 H         1 UNK         0.0638 
     97 H97       -56.7022  -29.1268   11.1101 H         1 UNK         0.0638 
     98 H98       -54.8856  -27.6375   12.4487 H         1 UNK         0.0568 
     99 H99       -57.6859  -27.3515   15.1390 H         1 UNK         0.3450 
    100 H100      -56.1451  -28.1199   15.3925 H         1 UNK         0.3450 
    101 H101      -55.1164  -29.6811   14.5428 H         1 UNK         0.2987 
    102 H102      -53.0972  -29.5343   15.9687 H         1 UNK         0.0766 
    103 H103      -53.7163  -31.7422   14.9274 H         1 UNK         0.0798 
    104 H104      -52.2202  -31.7478   14.0026 H         1 UNK         0.0798 
    105 H105      -52.1774  -31.8865   15.7593 H         1 UNK         0.0798 
    106 H106      -50.8938  -29.1013   14.1647 H         1 UNK         0.3198 
    107 H107      -48.3678  -29.1656   16.5799 H         1 UNK         0.0843 
    108 H108      -48.5760  -29.9594   14.1699 H         1 UNK         0.0831 
    109 H109      -47.4594  -28.6264   14.3711 H         1 UNK         0.0831 
    110 H110      -49.0578  -28.3278   13.7027 H         1 UNK         0.0831 
    111 H111      -49.9863  -26.7959   16.1153 H         1 UNK         0.3133 
    112 H112      -47.7161  -24.7635   17.7351 H         1 UNK         0.0566 
    113 H113      -47.4945  -23.1342   15.8915 H         1 UNK         0.0814 
    114 H114      -46.4270  -24.4966   15.5949 H         1 UNK         0.0814 
    115 H115      -47.9416  -24.3636   14.7114 H         1 UNK         0.0814 
    116 H116      -49.9783  -24.2058   15.9753 H         1 UNK         0.3091 
    117 H117      -52.4787  -24.8732   18.2906 H         1 UNK         0.0702 
    118 H118      -53.0558  -22.4591   18.2443 H         1 UNK         0.0785 
    119 H119      -51.4216  -22.0485   17.7237 H         1 UNK         0.0785 
    120 H120      -51.6967  -22.7278   19.3229 H         1 UNK         0.0785 
    121 H121      -52.5235  -23.3246   15.8865 H         1 UNK         0.2998 
    122 H122      -52.8384  -26.0819   13.6390 H         1 UNK         0.0697 
    123 H123      -54.7046  -23.8332   14.5529 H         1 UNK         0.0825 
    124 H124      -55.0419  -25.5489   14.6866 H         1 UNK         0.0825 
    125 H125      -54.8651  -24.8175   13.0988 H         1 UNK         0.0825 
    126 H126      -51.6433  -24.5991   12.6204 H         1 UNK         0.3029 
    127 H127      -51.6808  -21.1254   12.2611 H         1 UNK         0.0897 
    128 H128      -49.1836  -21.3606   12.2305 H         1 UNK         0.0792 
    129 H129      -49.8032  -21.3136   13.8744 H         1 UNK         0.0792 
    130 H130      -49.3103  -22.8460   13.1710 H         1 UNK         0.0792 
    131 H131      -50.2823  -23.2097   10.8693 H         1 UNK         0.3086 
    132 H132      -53.0428  -24.2886    8.8915 H         1 UNK         0.0583 
    133 H133      -52.2295  -22.3822    7.5735 H         1 UNK         0.1020 
    134 H134      -50.5834  -22.6861    8.0625 H         1 UNK         0.1020 
    135 H135      -53.7214  -24.1969    6.5169 H         1 UNK         0.0694 
    136 H136      -53.1559  -24.7946    4.9819 H         1 UNK         0.0694 
    137 H137      -50.2918  -25.1044    9.0697 H         1 UNK         0.2989 
    138 H138      -50.8523  -27.6289   11.5205 H         1 UNK         0.1055 
    139 H139      -49.7713  -28.9626    9.6744 H         1 UNK         0.0806 
    140 H140      -50.3283  -27.7698    8.5009 H         1 UNK         0.0806 
    141 H141      -51.4902  -28.7156    9.4118 H         1 UNK         0.0806 
    142 H142      -48.5920  -26.6308    9.9981 H         1 UNK         0.3061 
    143 H143      -47.5546  -24.2636   12.4343 H         1 UNK         0.0734 
    144 H144      -46.8040  -26.3695   13.5614 H         1 UNK         0.0832 
    145 H145      -46.3450  -27.0515   12.0088 H         1 UNK         0.0832 
    146 H146      -45.4991  -25.6388   12.6455 H         1 UNK         0.0832 
    147 H147      -46.1759  -25.3193   10.2053 H         1 UNK         0.3156 
    148 H148      -47.8144  -23.6582    7.5955 H         1 UNK         0.0589 
    149 H149      -45.1451  -22.8141    8.8523 H         1 UNK         0.0808 
    150 H150      -45.6528  -22.5106    7.1896 H         1 UNK         0.0808 
    151 H151      -46.4988  -21.7424    8.5214 H         1 UNK         0.0808 
    152 H152      -45.3306  -24.9933    7.5934 H         1 UNK         0.3098 
    153 H153      -45.2038  -27.0796    6.6412 H         1 UNK         0.0720 
    154 H154      -44.8180  -28.9951    8.2208 H         1 UNK         0.0791 
    155 H155      -46.2228  -28.5107    9.1683 H         1 UNK         0.0791 
    156 H156      -44.8102  -27.4649    9.0811 H         1 UNK         0.0791 
    157 H157      -47.3983  -29.0481    7.0563 H         1 UNK         0.3028 
@<TRIPOS>BOND
     1    1    2 1    
     2    1   82 1    
     3    1   83 1    
     4    1   84 1    
     5    2    3 2    
     6    2    4 am   BACKBONE|DICT|INTERRES
     7    4    5 1    
     8    4   85 1    
     9    5    6 1    
    10    5   80 1    
    11    5   86 1    
    12    6    7 1    
    13    6   87 1    
    14    6   88 1    
    15    7    8 1    
    16    8    9 1    
    17    8   89 1    
    18    8   90 1    
    19    9   10 ar   
    20    9   14 ar   
    21   10   11 ar   
    22   10   91 1    
    23   11   12 ar   
    24   11   58 1    
    25   12   13 ar   
    26   12   92 1    
    27   13   14 ar   
    28   13   15 1    
    29   14   93 1    
    30   15   16 1    
    31   15   94 1    
    32   15   95 1    
    33   16   17 1    
    34   17   18 1    
    35   17   96 1    
    36   17   97 1    
    37   18   19 1    
    38   18   22 1    
    39   18   98 1    
    40   19   20 am   BACKBONE|DICT|INTERRES
    41   19   21 2    
    42   20   99 1    
    43   20  100 1    
    44   22   23 am   BACKBONE|DICT|INTERRES
    45   22  101 1    
    46   23   24 2    
    47   23   25 1    
    48   25   26 1    
    49   25   27 1    
    50   25  102 1    
    51   26  103 1    
    52   26  104 1    
    53   26  105 1    
    54   27   28 am   BACKBONE|DICT|INTERRES
    55   27  106 1    
    56   28   29 2    
    57   28   30 1    
    58   30   31 1    
    59   30   32 1    
    60   30  107 1    
    61   31  108 1    
    62   31  109 1    
    63   31  110 1    
    64   32   33 am   BACKBONE|DICT|INTERRES
    65   32  111 1    
    66   33   34 2    
    67   33   35 1    
    68   35   36 1    
    69   35   37 1    
    70   35  112 1    
    71   36  113 1    
    72   36  114 1    
    73   36  115 1    
    74   37   38 am   BACKBONE|DICT|INTERRES
    75   37  116 1    
    76   38   39 2    
    77   38   40 1    
    78   40   41 1    
    79   40   42 1    
    80   40  117 1    
    81   41  118 1    
    82   41  119 1    
    83   41  120 1    
    84   42   43 am   BACKBONE|DICT|INTERRES
    85   42  121 1    
    86   43   44 2    
    87   43   45 1    
    88   45   46 1    
    89   45   47 1    
    90   45  122 1    
    91   46  123 1    
    92   46  124 1    
    93   46  125 1    
    94   47   48 am   BACKBONE|DICT|INTERRES
    95   47  126 1    
    96   48   49 2    
    97   48   50 1    
    98   50   51 1    
    99   50   52 1    
   100   50  127 1    
   101   51  128 1    
   102   51  129 1    
   103   51  130 1    
   104   52   53 am   BACKBONE|DICT|INTERRES
   105   52  131 1    
   106   53   54 2    
   107   53   55 1    
   108   55   56 1    
   109   55   59 1    
   110   55  132 1    
   111   56   57 1    
   112   56  133 1    
   113   56  134 1    
   114   57   58 1    
   115   58  135 1    
   116   58  136 1    
   117   59   60 am   BACKBONE|DICT|INTERRES
   118   59  137 1    
   119   60   61 2    
   120   60   62 1    
   121   62   63 1    
   122   62   64 1    
   123   62  138 1    
   124   63  139 1    
   125   63  140 1    
   126   63  141 1    
   127   64   65 am   BACKBONE|DICT|INTERRES
   128   64  142 1    
   129   65   66 2    
   130   65   67 1    
   131   67   68 1    
   132   67   69 1    
   133   67  143 1    
   134   68  144 1    
   135   68  145 1    
   136   68  146 1    
   137   69   70 am   BACKBONE|DICT|INTERRES
   138   69  147 1    
   139   70   71 2    
   140   70   72 1    
   141   72   73 1    
   142   72   74 1    
   143   72  148 1    
   144   73  149 1    
   145   73  150 1    
   146   73  151 1    
   147   74   75 am   BACKBONE|DICT|INTERRES
   148   74  152 1    
   149   75   76 2    
   150   75   77 1    
   151   77   78 1    
   152   77   79 1    
   153   77  153 1    
   154   78  154 1    
   155   78  155 1    
   156   78  156 1    
   157   79   80 am   BACKBONE|DICT|INTERRES
   158   79  157 1    
   159   80   81 2    
@<TRIPOS>SUBSTRUCTURE
     1 UNK         1 GROUP             0       ****    0 ROOT    
