@<TRIPOS>MOLECULE
3R207
157   159    1
SMALL
USER_CHARGES


@<TRIPOS>ATOM
      1 CA        -45.7877  -29.2952    4.0555 C.3       0 UNK        -0.1975 
      2 C         -47.0781  -28.5621    4.3896 C.2       0 UNK         0.4852 
      3 O         -47.5321  -27.7284    3.6035 O.2       0 UNK        -0.5216 
      4 N         -47.6734  -28.8599    5.5519 N.am      1 UNK        -0.4461 
      5 CA        -48.9108  -28.2547    6.0567 C.3       1 UNK         0.0864 
      6 C6        -49.6025  -29.1680    7.0971 C.3       14 UNK        -0.0898 
      7 S7        -50.4768  -30.5676    6.3206 S.3       14 UNK        -0.2598 
      8 C8        -52.0272  -29.7848    5.7443 C.3       14 UNK         0.0286 
      9 C9        -52.7718  -29.0629    6.8605 C.ar      14 UNK        -0.0844 
     10 C10       -52.7449  -27.6665    6.9435 C.ar      14 UNK        -0.0881 
     11 C11       -53.3640  -26.9994    8.0078 C.ar      14 UNK        -0.0643 
     12 C12       -54.0497  -27.7475    8.9718 C.ar      14 UNK        -0.0930 
     13 C13       -54.1131  -29.1422    8.8795 C.ar      14 UNK        -0.0827 
     14 C14       -53.4690  -29.7931    7.8243 C.ar      14 UNK        -0.1249 
     15 C15       -54.8817  -29.9585    9.9059 C.3       14 UNK         0.0141 
     16 S16       -53.7622  -30.6792   11.1448 S.3       14 UNK        -0.2313 
     17 C17       -54.8662  -31.8829   11.9672 C.3       14 UNK        -0.0915 
     18 CA        -55.2431  -31.5005   13.4221 C.3       13 UNK         0.0968 
     19 C         -54.0486  -31.6804   14.4070 C.2       13 UNK         0.5732 
     20 N         -53.5128  -30.6293   15.0173 N.am      13 UNK        -0.7310 
     21 O         -53.6106  -32.8062   14.6335 O.2       13 UNK        -0.5035 
     22 N         -55.8942  -30.1861   13.4737 N.am      13 UNK        -0.4233 
     23 C         -56.6536  -29.7404   14.4806 C.2       13 UNK         0.4989 
     24 O         -57.0284  -30.4513   15.4151 O.2       13 UNK        -0.4996 
     25 CA        -57.0653  -28.2517   14.4366 C.3       12 UNK         0.0216 
     26 CB        -57.2196  -27.6551   15.8521 C.3       12 UNK        -0.1964 
     27 N         -56.1938  -27.3863   13.6216 N.am      12 UNK        -0.4276 
     28 C         -54.8704  -27.2046   13.7588 C.2       12 UNK         0.5020 
     29 O         -54.1694  -27.8547   14.5362 O.2       12 UNK        -0.5489 
     30 CA        -54.1962  -26.1526   12.8565 C.3       11 UNK         0.0294 
     31 CB        -55.1733  -25.2972   12.0144 C.3       11 UNK        -0.2019 
     32 N         -53.2909  -25.3073   13.6404 N.am      11 UNK        -0.4493 
     33 C         -53.6203  -24.4755   14.6427 C.2       11 UNK         0.4932 
     34 O         -54.7785  -24.2222   14.9799 O.2       11 UNK        -0.5029 
     35 CA        -52.4434  -23.8210   15.3931 C.3       10 UNK         0.0280 
     36 CB        -52.8566  -23.1510   16.7208 C.3       10 UNK        -0.1976 
     37 N         -51.3298  -24.7541   15.5892 N.am      10 UNK        -0.4242 
     38 C         -51.3194  -25.8966   16.2952 C.2       10 UNK         0.5072 
     39 O         -52.2404  -26.2700   17.0221 O.2       10 UNK        -0.5224 
     40 CA        -50.0666  -26.7837   16.1641 C.3       9 UNK         0.0343 
     41 CB        -50.4104  -28.1063   15.4549 C.3       9 UNK        -0.2003 
     42 N         -48.9905  -26.1053   15.4314 N.am      9 UNK        -0.4272 
     43 C         -47.9812  -25.4483   16.0204 C.2       9 UNK         0.4988 
     44 O         -47.7870  -25.4342   17.2365 O.2       9 UNK        -0.5108 
     45 CA        -47.0407  -24.6450   15.1069 C.3       8 UNK         0.0248 
     46 CB        -45.9754  -25.5549   14.4790 C.3       8 UNK        -0.2001 
     47 N         -47.7343  -23.8976   14.0533 N.am      8 UNK        -0.4140 
     48 C         -48.5540  -22.8587   14.2743 C.2       8 UNK         0.5028 
     49 O         -48.8894  -22.4788   15.3954 O.2       8 UNK        -0.5428 
     50 CA        -49.1025  -22.1203   13.0478 C.3       7 UNK         0.0264 
     51 CB        -48.0186  -21.2235   12.4251 C.3       7 UNK        -0.1988 
     52 N         -49.6093  -23.0626   12.0478 N.am      7 UNK        -0.4454 
     53 C         -50.8913  -23.1403   11.6621 C.2       7 UNK         0.5027 
     54 O         -51.7777  -22.3970   12.0836 O.2       7 UNK        -0.5083 
     55 CA        -51.2711  -24.2267   10.6327 C.3       6 UNK         0.0844 
     56 C56       -51.4534  -23.6015    9.2244 C.3       14 UNK        -0.0967 
     57 S57       -51.6243  -24.8204    7.8753 S.3       14 UNK        -0.2604 
     58 C58       -53.3114  -25.4757    8.1117 C.3       14 UNK         0.0134 
     59 N         -50.3979  -25.4055   10.6269 N.am      6 UNK        -0.4116 
     60 C         -50.2342  -26.2428   11.6608 C.2       5 UNK         0.5034 
     61 O         -50.6009  -25.9949   12.8099 O.2       5 UNK        -0.5045 
     62 CA        -49.5582  -27.5823   11.3576 C.3       5 UNK         0.0224 
     63 CB        -50.5378  -28.5125   10.6253 C.3       5 UNK        -0.1978 
     64 N         -48.3568  -27.3627   10.5511 N.am      5 UNK        -0.4737 
     65 C         -47.1136  -27.5355   11.0137 C.2       4 UNK         0.5027 
     66 O         -46.8453  -28.1192   12.0635 O.2       4 UNK        -0.5211 
     67 CA        -45.9695  -26.9201   10.1910 C.3       4 UNK         0.0297 
     68 CB        -45.5261  -27.8891    9.0829 C.3       4 UNK        -0.1993 
     69 N         -46.2715  -25.6133    9.5953 N.am      4 UNK        -0.4486 
     70 C         -46.7645  -24.5243   10.2018 C.2       3 UNK         0.4961 
     71 O         -47.1061  -24.4823   11.3842 O.2       3 UNK        -0.5105 
     72 CA        -46.9511  -23.2602    9.3406 C.3       3 UNK         0.0299 
     73 CB        -45.6309  -22.4799    9.1998 C.3       3 UNK        -0.1972 
     74 N         -47.5902  -23.5074    8.0419 N.am      3 UNK        -0.4305 
     75 C         -47.1247  -24.2066    6.9994 C.2       2 UNK         0.5006 
     76 O         -45.9920  -24.6893    6.9278 O.2       2 UNK        -0.5106 
     77 CA        -48.1354  -24.4770    5.8774 C.3       2 UNK         0.0296 
     78 CB        -47.6749  -23.8354    4.5587 C.3       2 UNK        -0.2002 
     79 N         -48.3541  -25.9096    5.6689 N.am      2 UNK        -0.4032 
     80 C         -48.6672  -26.8285    6.5956 C.2       1 UNK         0.5000 
     81 O         -48.7701  -26.5951    7.8053 O.2       1 UNK        -0.5238 
     82 H82       -45.9006  -29.8460    3.1221 H         1 UNK         0.0889 
     83 H83       -45.5066  -30.0029    4.8352 H         1 UNK         0.0889 
     84 H84       -44.9726  -28.5821    3.9345 H         1 UNK         0.0889 
     85 H85       -47.2533  -29.5516    6.1559 H         1 UNK         0.3028 
     86 H86       -49.5969  -28.1340    5.2158 H         1 UNK         0.0864 
     87 H87       -48.8772  -29.5562    7.8143 H         1 UNK         0.0720 
     88 H88       -50.3229  -28.6151    7.6943 H         1 UNK         0.0720 
     89 H89       -52.6727  -30.5555    5.3205 H         1 UNK         0.0814 
     90 H90       -51.8033  -29.0991    4.9262 H         1 UNK         0.0814 
     91 H91       -52.2131  -27.0959    6.1948 H         1 UNK         0.1469 
     92 H92       -54.5421  -27.2453    9.7909 H         1 UNK         0.1381 
     93 H93       -53.4963  -30.8726    7.7622 H         1 UNK         0.1206 
     94 H94       -55.4230  -30.7555    9.3935 H         1 UNK         0.0813 
     95 H95       -55.6337  -29.3448   10.4036 H         1 UNK         0.0813 
     96 H96       -55.7778  -31.9983   11.3794 H         1 UNK         0.0638 
     97 H97       -54.3837  -32.8617   11.9405 H         1 UNK         0.0638 
     98 H98       -55.9872  -32.2295   13.7485 H         1 UNK         0.0568 
     99 H99       -52.7489  -30.7739   15.6559 H         1 UNK         0.3450 
    100 H100      -53.8421  -29.6843   14.8316 H         1 UNK         0.3450 
    101 H101      -55.6016  -29.5285   12.7687 H         1 UNK         0.2987 
    102 H102      -58.0467  -28.2300   13.9606 H         1 UNK         0.0766 
    103 H103      -57.5375  -26.6132   15.8113 H         1 UNK         0.0798 
    104 H104      -56.2822  -27.6958   16.4086 H         1 UNK         0.0798 
    105 H105      -57.9677  -28.1970   16.4321 H         1 UNK         0.0798 
    106 H106      -56.6713  -26.8144   12.9385 H         1 UNK         0.3198 
    107 H107      -53.5629  -26.7116   12.1656 H         1 UNK         0.0843 
    108 H108      -55.8812  -24.7472   12.6354 H         1 UNK         0.0831 
    109 H109      -55.7505  -25.9098   11.3217 H         1 UNK         0.0831 
    110 H110      -54.6353  -24.5638   11.4144 H         1 UNK         0.0831 
    111 H111      -52.3020  -25.4911   13.4893 H         1 UNK         0.3133 
    112 H112      -52.0645  -23.0353   14.7387 H         1 UNK         0.0566 
    113 H113      -51.9990  -22.6995   17.2197 H         1 UNK         0.0814 
    114 H114      -53.5842  -22.3577   16.5459 H         1 UNK         0.0814 
    115 H115      -53.3126  -23.8614   17.4108 H         1 UNK         0.0814 
    116 H116      -50.4990  -24.5488   15.0543 H         1 UNK         0.3091 
    117 H117      -49.7346  -27.0275   17.1753 H         1 UNK         0.0702 
    118 H118      -51.1292  -28.6808   16.0404 H         1 UNK         0.0785 
    119 H119      -50.8601  -27.9439   14.4757 H         1 UNK         0.0785 
    120 H120      -49.5267  -28.7305   15.3223 H         1 UNK         0.0785 
    121 H121      -49.0868  -26.0708   14.4240 H         1 UNK         0.2998 
    122 H122      -46.5241  -23.9156   15.7346 H         1 UNK         0.0697 
    123 H123      -46.4243  -26.2988   13.8232 H         1 UNK         0.0825 
    124 H124      -45.4153  -26.0909   15.2463 H         1 UNK         0.0825 
    125 H125      -45.2575  -24.9822   13.8916 H         1 UNK         0.0825 
    126 H126      -47.4861  -24.1358   13.0940 H         1 UNK         0.3029 
    127 H127      -49.9054  -21.4684   13.3996 H         1 UNK         0.0897 
    128 H128      -48.3992  -20.6877   11.5554 H         1 UNK         0.0792 
    129 H129      -47.1426  -21.7927   12.1135 H         1 UNK         0.0792 
    130 H130      -47.6778  -20.4750   13.1417 H         1 UNK         0.0792 
    131 H131      -48.9439  -23.7353   11.6822 H         1 UNK         0.3086 
    132 H132      -52.2492  -24.5970   10.9427 H         1 UNK         0.0583 
    133 H133      -52.3222  -22.9400    9.2126 H         1 UNK         0.1020 
    134 H134      -50.5989  -22.9702    8.9755 H         1 UNK         0.1020 
    135 H135      -53.6999  -25.1485    9.0764 H         1 UNK         0.0694 
    136 H136      -53.9667  -25.0449    7.3538 H         1 UNK         0.0694 
    137 H137      -50.0797  -25.6977    9.7121 H         1 UNK         0.2989 
    138 H138      -49.3045  -28.0476   12.3128 H         1 UNK         0.1055 
    139 H139      -51.3692  -28.7819   11.2776 H         1 UNK         0.0806 
    140 H140      -50.0564  -29.4397   10.3146 H         1 UNK         0.0806 
    141 H141      -50.9695  -28.0416    9.7425 H         1 UNK         0.0806 
    142 H142      -48.4719  -26.9370    9.6331 H         1 UNK         0.3061 
    143 H143      -45.1289  -26.7689   10.8710 H         1 UNK         0.0734 
    144 H144      -44.6465  -27.5169    8.5573 H         1 UNK         0.0832 
    145 H145      -45.2671  -28.8646    9.4969 H         1 UNK         0.0832 
    146 H146      -46.3152  -28.0455    8.3469 H         1 UNK         0.0832 
    147 H147      -46.0589  -25.5094    8.6059 H         1 UNK         0.3156 
    148 H148      -47.6487  -22.6166    9.8766 H         1 UNK         0.0589 
    149 H149      -44.8627  -23.0587    8.6864 H         1 UNK         0.0808 
    150 H150      -45.7765  -21.5518    8.6471 H         1 UNK         0.0808 
    151 H151      -45.2321  -22.2140   10.1797 H         1 UNK         0.0808 
    152 H152      -48.5453  -23.1863    7.9769 H         1 UNK         0.3098 
    153 H153      -49.0988  -24.0421    6.1504 H         1 UNK         0.0720 
    154 H154      -46.7376  -24.2688    4.2065 H         1 UNK         0.0791 
    155 H155      -47.5139  -22.7633    4.6803 H         1 UNK         0.0791 
    156 H156      -48.4195  -23.9637    3.7728 H         1 UNK         0.0791 
    157 H157      -48.2040  -26.2559    4.7261 H         1 UNK         0.3028 
@<TRIPOS>BOND
     1    1    2 1    
     2    1   82 1    
     3    1   83 1    
     4    1   84 1    
     5    2    3 2    
     6    2    4 am   BACKBONE|DICT|INTERRES
     7    4    5 1    
     8    4   85 1    
     9    5    6 1    
    10    5   80 1    
    11    5   86 1    
    12    6    7 1    
    13    6   87 1    
    14    6   88 1    
    15    7    8 1    
    16    8    9 1    
    17    8   89 1    
    18    8   90 1    
    19    9   10 ar   
    20    9   14 ar   
    21   10   11 ar   
    22   10   91 1    
    23   11   12 ar   
    24   11   58 1    
    25   12   13 ar   
    26   12   92 1    
    27   13   14 ar   
    28   13   15 1    
    29   14   93 1    
    30   15   16 1    
    31   15   94 1    
    32   15   95 1    
    33   16   17 1    
    34   17   18 1    
    35   17   96 1    
    36   17   97 1    
    37   18   19 1    
    38   18   22 1    
    39   18   98 1    
    40   19   20 am   BACKBONE|DICT|INTERRES
    41   19   21 2    
    42   20   99 1    
    43   20  100 1    
    44   22   23 am   BACKBONE|DICT|INTERRES
    45   22  101 1    
    46   23   24 2    
    47   23   25 1    
    48   25   26 1    
    49   25   27 1    
    50   25  102 1    
    51   26  103 1    
    52   26  104 1    
    53   26  105 1    
    54   27   28 am   BACKBONE|DICT|INTERRES
    55   27  106 1    
    56   28   29 2    
    57   28   30 1    
    58   30   31 1    
    59   30   32 1    
    60   30  107 1    
    61   31  108 1    
    62   31  109 1    
    63   31  110 1    
    64   32   33 am   BACKBONE|DICT|INTERRES
    65   32  111 1    
    66   33   34 2    
    67   33   35 1    
    68   35   36 1    
    69   35   37 1    
    70   35  112 1    
    71   36  113 1    
    72   36  114 1    
    73   36  115 1    
    74   37   38 am   BACKBONE|DICT|INTERRES
    75   37  116 1    
    76   38   39 2    
    77   38   40 1    
    78   40   41 1    
    79   40   42 1    
    80   40  117 1    
    81   41  118 1    
    82   41  119 1    
    83   41  120 1    
    84   42   43 am   BACKBONE|DICT|INTERRES
    85   42  121 1    
    86   43   44 2    
    87   43   45 1    
    88   45   46 1    
    89   45   47 1    
    90   45  122 1    
    91   46  123 1    
    92   46  124 1    
    93   46  125 1    
    94   47   48 am   BACKBONE|DICT|INTERRES
    95   47  126 1    
    96   48   49 2    
    97   48   50 1    
    98   50   51 1    
    99   50   52 1    
   100   50  127 1    
   101   51  128 1    
   102   51  129 1    
   103   51  130 1    
   104   52   53 am   BACKBONE|DICT|INTERRES
   105   52  131 1    
   106   53   54 2    
   107   53   55 1    
   108   55   56 1    
   109   55   59 1    
   110   55  132 1    
   111   56   57 1    
   112   56  133 1    
   113   56  134 1    
   114   57   58 1    
   115   58  135 1    
   116   58  136 1    
   117   59   60 am   BACKBONE|DICT|INTERRES
   118   59  137 1    
   119   60   61 2    
   120   60   62 1    
   121   62   63 1    
   122   62   64 1    
   123   62  138 1    
   124   63  139 1    
   125   63  140 1    
   126   63  141 1    
   127   64   65 am   BACKBONE|DICT|INTERRES
   128   64  142 1    
   129   65   66 2    
   130   65   67 1    
   131   67   68 1    
   132   67   69 1    
   133   67  143 1    
   134   68  144 1    
   135   68  145 1    
   136   68  146 1    
   137   69   70 am   BACKBONE|DICT|INTERRES
   138   69  147 1    
   139   70   71 2    
   140   70   72 1    
   141   72   73 1    
   142   72   74 1    
   143   72  148 1    
   144   73  149 1    
   145   73  150 1    
   146   73  151 1    
   147   74   75 am   BACKBONE|DICT|INTERRES
   148   74  152 1    
   149   75   76 2    
   150   75   77 1    
   151   77   78 1    
   152   77   79 1    
   153   77  153 1    
   154   78  154 1    
   155   78  155 1    
   156   78  156 1    
   157   79   80 am   BACKBONE|DICT|INTERRES
   158   79  157 1    
   159   80   81 2    
@<TRIPOS>SUBSTRUCTURE
     1 UNK         1 GROUP             0       ****    0 ROOT    
