@<TRIPOS>MOLECULE
3R207
157   159    1
SMALL
USER_CHARGES


@<TRIPOS>ATOM
      1 CA        -48.4879  -28.8264    1.1144 C.3       0 UNK        -0.1975 
      2 C         -49.4258  -27.8397    1.7937 C.2       0 UNK         0.4852 
      3 O         -49.7124  -26.7818    1.2322 O.2       0 UNK        -0.5216 
      4 N         -49.9049  -28.1779    2.9987 N.am      1 UNK        -0.4461 
      5 CA        -50.8317  -27.3605    3.7950 C.3       1 UNK         0.0864 
      6 C6        -51.4436  -28.1522    4.9779 C.3       14 UNK        -0.0898 
      7 S7        -52.2856  -29.6891    4.4761 S.3       14 UNK        -0.2598 
      8 C8        -51.2614  -30.9573    5.2990 C.3       14 UNK         0.0286 
      9 C9        -51.2177  -30.8078    6.8178 C.ar      14 UNK        -0.0844 
     10 C10       -49.9879  -30.7688    7.4861 C.ar      14 UNK        -0.0881 
     11 C11       -49.9391  -30.6738    8.8807 C.ar      14 UNK        -0.0643 
     12 C12       -51.1307  -30.5955    9.6072 C.ar      14 UNK        -0.0930 
     13 C13       -52.3648  -30.6374    8.9525 C.ar      14 UNK        -0.0827 
     14 C14       -52.4023  -30.7467    7.5598 C.ar      14 UNK        -0.1249 
     15 C15       -53.6549  -30.6041    9.7551 C.3       14 UNK         0.0141 
     16 S16       -54.1252  -28.9006   10.1819 S.3       14 UNK        -0.2313 
     17 C17       -54.4700  -29.0949   11.9600 C.3       14 UNK        -0.0915 
     18 CA        -55.0063  -27.7845   12.6051 C.3       13 UNK         0.0968 
     19 C         -56.5410  -27.5632   12.4515 C.2       13 UNK         0.5732 
     20 N         -57.0806  -26.4892   13.0141 N.am      13 UNK        -0.7310 
     21 O         -57.2508  -28.3507   11.8295 O.2       13 UNK        -0.5035 
     22 N         -54.5256  -27.6191   13.9846 N.am      13 UNK        -0.4233 
     23 C         -54.8934  -28.3517   15.0462 C.2       13 UNK         0.4989 
     24 O         -55.6612  -29.3127   14.9926 O.2       13 UNK        -0.4996 
     25 CA        -54.3088  -27.9390   16.4076 C.3       12 UNK         0.0216 
     26 CB        -53.0474  -28.7569   16.7310 C.3       12 UNK        -0.1964 
     27 N         -53.9931  -26.5083   16.4320 N.am      12 UNK        -0.4276 
     28 C         -54.8532  -25.5593   16.8287 C.2       12 UNK         0.5020 
     29 O         -55.9415  -25.7953   17.3551 O.2       12 UNK        -0.5489 
     30 CA        -54.4505  -24.0973   16.5734 C.3       11 UNK         0.0294 
     31 CB        -53.6582  -23.5416   17.7662 C.3       11 UNK        -0.2019 
     32 N         -53.6903  -23.9250   15.3297 N.am      11 UNK        -0.4493 
     33 C         -54.2266  -24.0558   14.1051 C.2       11 UNK         0.4932 
     34 O         -55.4152  -24.3221   13.9235 O.2       11 UNK        -0.5029 
     35 CA        -53.3107  -23.9396   12.8699 C.3       10 UNK         0.0280 
     36 CB        -53.9220  -23.0537   11.7657 C.3       10 UNK        -0.1976 
     37 N         -51.9272  -23.5592   13.1609 N.am      10 UNK        -0.4242 
     38 C         -51.4512  -22.3869   13.6016 C.2       10 UNK         0.5072 
     39 O         -52.1395  -21.3848   13.8028 O.2       10 UNK        -0.5224 
     40 CA        -49.9406  -22.3748   13.9094 C.3       9 UNK         0.0343 
     41 CB        -49.4811  -21.1188   14.6796 C.3       9 UNK        -0.2003 
     42 N         -49.5119  -23.6042   14.5929 N.am      9 UNK        -0.4272 
     43 C         -49.9524  -24.0614   15.7755 C.2       9 UNK         0.4988 
     44 O         -50.7446  -23.4476   16.4892 O.2       9 UNK        -0.5108 
     45 CA        -49.4669  -25.4632   16.1958 C.3       8 UNK         0.0248 
     46 CB        -50.1871  -25.9991   17.4518 C.3       8 UNK        -0.2001 
     47 N         -49.5476  -26.4381   15.1020 N.am      8 UNK        -0.4140 
     48 C         -50.6359  -26.7865   14.3964 C.2       8 UNK         0.5028 
     49 O         -51.7698  -26.3553   14.6236 O.2       8 UNK        -0.5428 
     50 CA        -50.4296  -27.7507   13.2154 C.3       7 UNK         0.0264 
     51 CB        -51.1557  -27.2395   11.9622 C.3       7 UNK        -0.1988 
     52 N         -49.0142  -27.8983   12.8799 N.am      7 UNK        -0.4454 
     53 C         -48.2975  -29.0275   12.9697 C.2       7 UNK         0.5027 
     54 O         -48.7482  -30.0962   13.3843 O.2       7 UNK        -0.5083 
     55 CA        -46.8184  -28.9526   12.5148 C.3       6 UNK         0.0844 
     56 C56       -46.5774  -29.5386   11.0927 C.3       14 UNK        -0.0967 
     57 S57       -47.8177  -29.1090    9.8088 S.3       14 UNK        -0.2604 
     58 C58       -48.6084  -30.7383    9.6146 C.3       14 UNK         0.0134 
     59 N         -46.2406  -27.6111   12.6518 N.am      6 UNK        -0.4116 
     60 C         -46.0572  -26.9670   13.8145 C.2       5 UNK         0.5034 
     61 O         -46.3391  -27.4432   14.9140 O.2       5 UNK        -0.5045 
     62 CA        -45.5239  -25.5244   13.7435 C.3       5 UNK         0.0224 
     63 CB        -43.9958  -25.5102   13.9074 C.3       5 UNK        -0.1978 
     64 N         -45.8874  -24.7915   12.5234 N.am      5 UNK        -0.4737 
     65 C         -47.1357  -24.5852   12.0823 C.2       4 UNK         0.5027 
     66 O         -48.1277  -25.0585   12.6406 O.2       4 UNK        -0.5211 
     67 CA        -47.3155  -23.7298   10.8159 C.3       4 UNK         0.0297 
     68 CB        -45.9931  -23.2989   10.1488 C.3       4 UNK        -0.1993 
     69 N         -48.1102  -24.4710    9.8432 N.am      4 UNK        -0.4486 
     70 C         -49.4433  -24.4846    9.7545 C.2       3 UNK         0.4961 
     71 O         -50.1841  -23.7852   10.4471 O.2       3 UNK        -0.5105 
     72 CA        -50.0347  -25.4427    8.6997 C.3       3 UNK         0.0299 
     73 CB        -51.5758  -25.4293    8.6785 C.3       3 UNK        -0.1972 
     74 N         -49.5461  -25.1721    7.3434 N.am      3 UNK        -0.4305 
     75 C         -48.3206  -25.4263    6.8636 C.2       2 UNK         0.5006 
     76 O         -47.4060  -25.9029    7.5389 O.2       2 UNK        -0.5106 
     77 CA        -48.1084  -25.1428    5.3644 C.3       2 UNK         0.0296 
     78 CB        -46.6247  -25.1921    4.9542 C.3       2 UNK        -0.2002 
     79 N         -48.8549  -26.1223    4.5759 N.am      2 UNK        -0.4032 
     80 C         -50.1772  -26.0829    4.3576 C.2       1 UNK         0.5000 
     81 O         -50.8844  -25.1165    4.6525 O.2       1 UNK        -0.5238 
     82 H82       -47.5184  -28.3614    0.9371 H         1 UNK         0.0889 
     83 H83       -48.8995  -29.1335    0.1533 H         1 UNK         0.0889 
     84 H84       -48.3302  -29.7212    1.7163 H         1 UNK         0.0889 
     85 H85       -49.6603  -29.0732    3.3960 H         1 UNK         0.3028 
     86 H86       -51.6451  -27.0436    3.1383 H         1 UNK         0.0864 
     87 H87       -52.1827  -27.5413    5.5007 H         1 UNK         0.0720 
     88 H88       -50.6749  -28.3814    5.7185 H         1 UNK         0.0720 
     89 H89       -50.2561  -30.9261    4.8765 H         1 UNK         0.0814 
     90 H90       -51.6635  -31.9419    5.0570 H         1 UNK         0.0814 
     91 H91       -49.0650  -30.8371    6.9264 H         1 UNK         0.1469 
     92 H92       -51.0985  -30.5257   10.6863 H         1 UNK         0.1381 
     93 H93       -53.3554  -30.7883    7.0503 H         1 UNK         0.1206 
     94 H94       -53.5322  -31.2056   10.6571 H         1 UNK         0.0813 
     95 H95       -54.4689  -31.0656    9.1940 H         1 UNK         0.0813 
     96 H96       -55.1535  -29.9304   12.1221 H         1 UNK         0.0638 
     97 H97       -53.5281  -29.3869   12.4277 H         1 UNK         0.0638 
     98 H98       -54.5627  -26.9488   12.0643 H         1 UNK         0.0568 
     99 H99       -58.0720  -26.3353   12.9265 H         1 UNK         0.3450 
    100 H100      -56.5006  -25.7921   13.4734 H         1 UNK         0.3450 
    101 H101      -53.8530  -26.8798   14.1341 H         1 UNK         0.2987 
    102 H102      -55.0557  -28.1641   17.1720 H         1 UNK         0.0766 
    103 H103      -52.2784  -28.6452   15.9677 H         1 UNK         0.0798 
    104 H104      -53.2830  -29.8198   16.7970 H         1 UNK         0.0798 
    105 H105      -52.6166  -28.4607   17.6875 H         1 UNK         0.0798 
    106 H106      -53.1282  -26.2295   15.9732 H         1 UNK         0.3198 
    107 H107      -55.3690  -23.5131   16.4825 H         1 UNK         0.0843 
    108 H108      -53.3361  -22.5151   17.5900 H         1 UNK         0.0831 
    109 H109      -52.7726  -24.1406   17.9794 H         1 UNK         0.0831 
    110 H110      -54.2698  -23.5405   18.6693 H         1 UNK         0.0831 
    111 H111      -52.7001  -23.7289   15.4202 H         1 UNK         0.3133 
    112 H112      -53.2424  -24.9484   12.4641 H         1 UNK         0.0566 
    113 H113      -54.8851  -23.4462   11.4369 H         1 UNK         0.0814 
    114 H114      -54.0898  -22.0329   12.1095 H         1 UNK         0.0814 
    115 H115      -53.2743  -23.0125   10.8895 H         1 UNK         0.0814 
    116 H116      -51.2538  -24.3044   13.0512 H         1 UNK         0.3091 
    117 H117      -49.4377  -22.3702   12.9417 H         1 UNK         0.0702 
    118 H118      -48.4074  -21.1395   14.8659 H         1 UNK         0.0785 
    119 H119      -49.9873  -21.0230   15.6406 H         1 UNK         0.0785 
    120 H120      -49.6941  -20.2136   14.1098 H         1 UNK         0.0785 
    121 H121      -48.9155  -24.2146   14.0358 H         1 UNK         0.2998 
    122 H122      -48.4085  -25.3594   16.4391 H         1 UNK         0.0697 
    123 H123      -49.8002  -26.9751   17.7442 H         1 UNK         0.0825 
    124 H124      -50.0461  -25.3277   18.2996 H         1 UNK         0.0825 
    125 H125      -51.2602  -26.0996   17.2936 H         1 UNK         0.0825 
    126 H126      -48.6683  -26.8585   14.8321 H         1 UNK         0.3029 
    127 H127      -50.8629  -28.7106   13.5034 H         1 UNK         0.0897 
    128 H128      -50.9990  -27.9013   11.1099 H         1 UNK         0.0792 
    129 H129      -52.2287  -27.1757   12.1257 H         1 UNK         0.0792 
    130 H130      -50.8089  -26.2450   11.6846 H         1 UNK         0.0792 
    131 H131      -48.5542  -27.0526   12.5560 H         1 UNK         0.3086 
    132 H132      -46.2612  -29.5840   13.2107 H         1 UNK         0.0583 
    133 H133      -45.5931  -29.2435   10.7256 H         1 UNK         0.1020 
    134 H134      -46.5182  -30.6254   11.1724 H         1 UNK         0.1020 
    135 H135      -47.9246  -31.4051    9.0869 H         1 UNK         0.0694 
    136 H136      -48.7652  -31.1828   10.5990 H         1 UNK         0.0694 
    137 H137      -46.0022  -27.1321   11.7960 H         1 UNK         0.2989 
    138 H138      -45.9619  -24.9846   14.5861 H         1 UNK         0.1055 
    139 H139      -43.4946  -26.0022   13.0728 H         1 UNK         0.0806 
    140 H140      -43.6952  -26.0287   14.8192 H         1 UNK         0.0806 
    141 H141      -43.6126  -24.4920   13.9774 H         1 UNK         0.0806 
    142 H142      -45.1266  -24.3756   12.0050 H         1 UNK         0.3061 
    143 H143      -47.8529  -22.8267   11.1110 H         1 UNK         0.0734 
    144 H144      -46.1860  -22.6920    9.2637 H         1 UNK         0.0832 
    145 H145      -45.3871  -22.6883   10.8196 H         1 UNK         0.0832 
    146 H146      -45.3937  -24.1537    9.8318 H         1 UNK         0.0832 
    147 H147      -47.6062  -25.0774    9.1992 H         1 UNK         0.3156 
    148 H148      -49.7196  -26.4511    8.9779 H         1 UNK         0.0589 
    149 H149      -51.9657  -24.4575    8.3733 H         1 UNK         0.0808 
    150 H150      -51.9688  -26.1810    7.9933 H         1 UNK         0.0808 
    151 H151      -51.9900  -25.6485    9.6627 H         1 UNK         0.0808 
    152 H152      -50.2267  -24.8015    6.6900 H         1 UNK         0.3098 
    153 H153      -48.4833  -24.1391    5.1522 H         1 UNK         0.0720 
    154 H154      -46.0391  -24.4708    5.5258 H         1 UNK         0.0791 
    155 H155      -46.1869  -26.1764    5.1256 H         1 UNK         0.0791 
    156 H156      -46.4978  -24.9484    3.8992 H         1 UNK         0.0791 
    157 H157      -48.3612  -26.9655    4.3220 H         1 UNK         0.3028 
@<TRIPOS>BOND
     1    1    2 1    
     2    1   82 1    
     3    1   83 1    
     4    1   84 1    
     5    2    3 2    
     6    2    4 am   BACKBONE|DICT|INTERRES
     7    4    5 1    
     8    4   85 1    
     9    5    6 1    
    10    5   80 1    
    11    5   86 1    
    12    6    7 1    
    13    6   87 1    
    14    6   88 1    
    15    7    8 1    
    16    8    9 1    
    17    8   89 1    
    18    8   90 1    
    19    9   10 ar   
    20    9   14 ar   
    21   10   11 ar   
    22   10   91 1    
    23   11   12 ar   
    24   11   58 1    
    25   12   13 ar   
    26   12   92 1    
    27   13   14 ar   
    28   13   15 1    
    29   14   93 1    
    30   15   16 1    
    31   15   94 1    
    32   15   95 1    
    33   16   17 1    
    34   17   18 1    
    35   17   96 1    
    36   17   97 1    
    37   18   19 1    
    38   18   22 1    
    39   18   98 1    
    40   19   20 am   BACKBONE|DICT|INTERRES
    41   19   21 2    
    42   20   99 1    
    43   20  100 1    
    44   22   23 am   BACKBONE|DICT|INTERRES
    45   22  101 1    
    46   23   24 2    
    47   23   25 1    
    48   25   26 1    
    49   25   27 1    
    50   25  102 1    
    51   26  103 1    
    52   26  104 1    
    53   26  105 1    
    54   27   28 am   BACKBONE|DICT|INTERRES
    55   27  106 1    
    56   28   29 2    
    57   28   30 1    
    58   30   31 1    
    59   30   32 1    
    60   30  107 1    
    61   31  108 1    
    62   31  109 1    
    63   31  110 1    
    64   32   33 am   BACKBONE|DICT|INTERRES
    65   32  111 1    
    66   33   34 2    
    67   33   35 1    
    68   35   36 1    
    69   35   37 1    
    70   35  112 1    
    71   36  113 1    
    72   36  114 1    
    73   36  115 1    
    74   37   38 am   BACKBONE|DICT|INTERRES
    75   37  116 1    
    76   38   39 2    
    77   38   40 1    
    78   40   41 1    
    79   40   42 1    
    80   40  117 1    
    81   41  118 1    
    82   41  119 1    
    83   41  120 1    
    84   42   43 am   BACKBONE|DICT|INTERRES
    85   42  121 1    
    86   43   44 2    
    87   43   45 1    
    88   45   46 1    
    89   45   47 1    
    90   45  122 1    
    91   46  123 1    
    92   46  124 1    
    93   46  125 1    
    94   47   48 am   BACKBONE|DICT|INTERRES
    95   47  126 1    
    96   48   49 2    
    97   48   50 1    
    98   50   51 1    
    99   50   52 1    
   100   50  127 1    
   101   51  128 1    
   102   51  129 1    
   103   51  130 1    
   104   52   53 am   BACKBONE|DICT|INTERRES
   105   52  131 1    
   106   53   54 2    
   107   53   55 1    
   108   55   56 1    
   109   55   59 1    
   110   55  132 1    
   111   56   57 1    
   112   56  133 1    
   113   56  134 1    
   114   57   58 1    
   115   58  135 1    
   116   58  136 1    
   117   59   60 am   BACKBONE|DICT|INTERRES
   118   59  137 1    
   119   60   61 2    
   120   60   62 1    
   121   62   63 1    
   122   62   64 1    
   123   62  138 1    
   124   63  139 1    
   125   63  140 1    
   126   63  141 1    
   127   64   65 am   BACKBONE|DICT|INTERRES
   128   64  142 1    
   129   65   66 2    
   130   65   67 1    
   131   67   68 1    
   132   67   69 1    
   133   67  143 1    
   134   68  144 1    
   135   68  145 1    
   136   68  146 1    
   137   69   70 am   BACKBONE|DICT|INTERRES
   138   69  147 1    
   139   70   71 2    
   140   70   72 1    
   141   72   73 1    
   142   72   74 1    
   143   72  148 1    
   144   73  149 1    
   145   73  150 1    
   146   73  151 1    
   147   74   75 am   BACKBONE|DICT|INTERRES
   148   74  152 1    
   149   75   76 2    
   150   75   77 1    
   151   77   78 1    
   152   77   79 1    
   153   77  153 1    
   154   78  154 1    
   155   78  155 1    
   156   78  156 1    
   157   79   80 am   BACKBONE|DICT|INTERRES
   158   79  157 1    
   159   80   81 2    
@<TRIPOS>SUBSTRUCTURE
     1 UNK         1 GROUP             0       ****    0 ROOT    
