@<TRIPOS>MOLECULE
3R207
157   159    1
SMALL
USER_CHARGES


@<TRIPOS>ATOM
      1 CA        -44.8481  -28.4450    7.4464 C.3       0 UNK        -0.1975 
      2 C         -45.9738  -28.1440    6.4677 C.2       0 UNK         0.4852 
      3 O         -45.7412  -27.4833    5.4543 O.2       0 UNK        -0.5216 
      4 N         -47.1880  -28.6275    6.7670 N.am      1 UNK        -0.4461 
      5 CA        -48.4075  -28.5075    5.9572 C.3       1 UNK         0.0864 
      6 C6        -49.5905  -29.2188    6.6561 C.3       14 UNK        -0.0898 
      7 S7        -50.9780  -29.6112    5.5358 S.3       14 UNK        -0.2598 
      8 C8        -51.4900  -31.2592    6.1314 C.3       14 UNK         0.0286 
      9 C9        -52.0348  -31.2062    7.5533 C.ar      14 UNK        -0.0844 
     10 C10       -51.1795  -31.4111    8.6398 C.ar      14 UNK        -0.0881 
     11 C11       -51.6503  -31.3029    9.9502 C.ar      14 UNK        -0.0643 
     12 C12       -53.0042  -31.0418   10.1735 C.ar      14 UNK        -0.0930 
     13 C13       -53.8810  -30.8818    9.0956 C.ar      14 UNK        -0.0827 
     14 C14       -53.3899  -30.9508    7.7874 C.ar      14 UNK        -0.1249 
     15 C15       -55.3598  -30.6507    9.3559 C.3       14 UNK         0.0141 
     16 S16       -55.7163  -28.8903    9.6310 S.3       14 UNK        -0.2313 
     17 C17       -57.2401  -29.0268   10.6240 C.3       14 UNK        -0.0915 
     18 CA        -57.6766  -27.6846   11.2665 C.3       13 UNK         0.0968 
     19 C         -59.0059  -27.8672   12.0569 C.2       13 UNK         0.5732 
     20 N         -59.0213  -27.7372   13.3783 N.am      13 UNK        -0.7310 
     21 O         -60.0449  -28.1298   11.4555 O.2       13 UNK        -0.5035 
     22 N         -56.5761  -27.0618   12.0208 N.am      13 UNK        -0.4233 
     23 C         -56.5411  -25.7941   12.4419 C.2       13 UNK         0.4989 
     24 O         -57.4687  -24.9981   12.2845 O.2       13 UNK        -0.4996 
     25 CA        -55.2468  -25.3417   13.1477 C.3       12 UNK         0.0216 
     26 CB        -55.3310  -23.8915   13.6641 C.3       12 UNK        -0.1964 
     27 N         -54.8557  -26.2133   14.2607 N.am      12 UNK        -0.4276 
     28 C         -54.2710  -27.4152   14.1590 C.2       12 UNK         0.5020 
     29 O         -54.0643  -27.9788   13.0827 O.2       12 UNK        -0.5489 
     30 CA        -53.8220  -28.0636   15.4799 C.3       11 UNK         0.0294 
     31 CB        -53.0351  -29.3704   15.2643 C.3       11 UNK        -0.2019 
     32 N         -52.9810  -27.1113   16.2071 N.am      11 UNK        -0.4493 
     33 C         -53.3584  -26.4004   17.2769 C.2       11 UNK         0.4932 
     34 O         -54.4475  -26.5500   17.8323 O.2       11 UNK        -0.5029 
     35 CA        -52.4108  -25.2890   17.7700 C.3       10 UNK         0.0280 
     36 CB        -52.4983  -25.0571   19.2943 C.3       10 UNK        -0.1976 
     37 N         -51.0200  -25.4233   17.3186 N.am      10 UNK        -0.4242 
     38 C         -50.1039  -26.3209   17.7173 C.2       10 UNK         0.5072 
     39 O         -50.3368  -27.2085   18.5392 O.2       10 UNK        -0.5224 
     40 CA        -48.6834  -26.2276   17.1139 C.3       9 UNK         0.0343 
     41 CB        -48.2215  -27.5900   16.5666 C.3       9 UNK        -0.2003 
     42 N         -48.5532  -25.2236   16.0538 N.am      9 UNK        -0.4272 
     43 C         -48.3852  -23.9066   16.2397 C.2       9 UNK         0.4988 
     44 O         -48.2282  -23.3864   17.3443 O.2       9 UNK        -0.5108 
     45 CA        -48.4625  -23.0108   14.9868 C.3       8 UNK         0.0248 
     46 CB        -47.0724  -22.8264   14.3583 C.3       8 UNK        -0.2001 
     47 N         -49.4003  -23.5125   13.9748 N.am      8 UNK        -0.4140 
     48 C         -50.7179  -23.6702   14.1725 C.2       8 UNK         0.5028 
     49 O         -51.2983  -23.3366   15.2052 O.2       8 UNK        -0.5428 
     50 CA        -51.5104  -24.3966   13.0752 C.3       7 UNK         0.0264 
     51 CB        -51.9312  -23.4341   11.9554 C.3       7 UNK        -0.1988 
     52 N         -50.7781  -25.5375   12.5203 N.am      7 UNK        -0.4454 
     53 C         -50.5033  -26.6514   13.2163 C.2       7 UNK         0.5027 
     54 O         -50.8676  -26.8274   14.3779 O.2       7 UNK        -0.5083 
     55 CA        -49.6250  -27.7197   12.5384 C.3       6 UNK         0.0844 
     56 C56       -50.4719  -28.7083   11.7035 C.3       14 UNK        -0.0967 
     57 S57       -49.4581  -30.1235   11.1558 S.3       14 UNK        -0.2604 
     58 C58       -50.6867  -31.4673   11.1154 C.3       14 UNK         0.0134 
     59 N         -48.5424  -27.1104   11.7604 N.am      6 UNK        -0.4116 
     60 C         -47.5077  -26.4486   12.2960 C.2       5 UNK         0.5034 
     61 O         -47.3365  -26.3084   13.5063 O.2       5 UNK        -0.5045 
     62 CA        -46.5247  -25.7920   11.3120 C.3       5 UNK         0.0224 
     63 CB        -45.4673  -26.8046   10.8454 C.3       5 UNK        -0.1978 
     64 N         -47.1809  -25.1941   10.1436 N.am      5 UNK        -0.4737 
     65 C         -48.0780  -24.1988   10.1931 C.2       4 UNK         0.5027 
     66 O         -48.4724  -23.6980   11.2471 O.2       4 UNK        -0.5211 
     67 CA        -48.6657  -23.7212    8.8525 C.3       4 UNK         0.0297 
     68 CB        -49.1406  -22.2526    8.8927 C.3       4 UNK        -0.1993 
     69 N         -47.7894  -23.9707    7.7004 N.am      4 UNK        -0.4486 
     70 C         -46.6238  -23.3682    7.4076 C.2       3 UNK         0.4961 
     71 O         -46.0925  -22.5220    8.1269 O.2       3 UNK        -0.5105 
     72 CA        -45.9122  -23.7700    6.0964 C.3       3 UNK         0.0299 
     73 CB        -44.5729  -24.4610    6.3992 C.3       3 UNK        -0.1972 
     74 N         -46.7168  -24.6329    5.2241 N.am      3 UNK        -0.4305 
     75 C         -47.7878  -24.2214    4.5262 C.2       2 UNK         0.5006 
     76 O         -48.1329  -23.0419    4.4472 O.2       2 UNK        -0.5106 
     77 CA        -48.6499  -25.2924    3.8268 C.3       2 UNK         0.0296 
     78 CB        -48.3613  -25.3094    2.3167 C.3       2 UNK        -0.2002 
     79 N         -48.5013  -26.6522    4.3579 N.am      2 UNK        -0.4032 
     80 C         -48.7282  -27.0353    5.6234 C.2       1 UNK         0.5000 
     81 O         -49.1007  -26.2717    6.5183 O.2       1 UNK        -0.5238 
     82 H82       -44.4905  -27.5279    7.9112 H         1 UNK         0.0889 
     83 H83       -44.0123  -28.9065    6.9213 H         1 UNK         0.0889 
     84 H84       -45.1648  -29.1257    8.2363 H         1 UNK         0.0889 
     85 H85       -47.2997  -29.1433    7.6277 H         1 UNK         0.3028 
     86 H86       -48.2042  -29.0370    5.0239 H         1 UNK         0.0864 
     87 H87       -49.2250  -30.1596    7.0652 H         1 UNK         0.0720 
     88 H88       -49.9640  -28.6458    7.5075 H         1 UNK         0.0720 
     89 H89       -50.6470  -31.9493    6.0697 H         1 UNK         0.0814 
     90 H90       -52.2530  -31.6547    5.4593 H         1 UNK         0.0814 
     91 H91       -50.1339  -31.6285    8.4746 H         1 UNK         0.1469 
     92 H92       -53.3792  -30.9638   11.1853 H         1 UNK         0.1381 
     93 H93       -54.0614  -30.8047    6.9521 H         1 UNK         0.1206 
     94 H94       -55.6645  -31.2357   10.2250 H         1 UNK         0.0813 
     95 H95       -55.9594  -31.0126    8.5193 H         1 UNK         0.0813 
     96 H96       -57.0797  -29.7730   11.4046 H         1 UNK         0.0638 
     97 H97       -58.0277  -29.4182    9.9772 H         1 UNK         0.0638 
     98 H98       -57.9151  -27.0004   10.4502 H         1 UNK         0.0568 
     99 H99       -59.8898  -27.8546   13.8756 H         1 UNK         0.3450 
    100 H100      -58.1771  -27.5137   13.8788 H         1 UNK         0.3450 
    101 H101      -55.7565  -27.6386   12.1901 H         1 UNK         0.2987 
    102 H102      -54.4583  -25.3794   12.3932 H         1 UNK         0.0766 
    103 H103      -54.4000  -23.5744   14.1341 H         1 UNK         0.0798 
    104 H104      -56.1306  -23.7704   14.3961 H         1 UNK         0.0798 
    105 H105      -55.5293  -23.1966   12.8469 H         1 UNK         0.0798 
    106 H106      -55.0207  -25.8517   15.1895 H         1 UNK         0.3198 
    107 H107      -54.7229  -28.3033   16.0483 H         1 UNK         0.0843 
    108 H108      -52.7408  -29.8146   16.2151 H         1 UNK         0.0831 
    109 H109      -52.1301  -29.2075   14.6788 H         1 UNK         0.0831 
    110 H110      -53.6390  -30.1078   14.7340 H         1 UNK         0.0831 
    111 H111      -52.0918  -26.8967   15.7571 H         1 UNK         0.3133 
    112 H112      -52.7732  -24.3773   17.2937 H         1 UNK         0.0566 
    113 H113      -51.8289  -24.2585   19.6139 H         1 UNK         0.0814 
    114 H114      -53.5078  -24.7672   19.5884 H         1 UNK         0.0814 
    115 H115      -52.2454  -25.9552   19.8582 H         1 UNK         0.0814 
    116 H116      -50.7483  -24.7501   16.6096 H         1 UNK         0.3091 
    117 H117      -48.0124  -25.9534   17.9304 H         1 UNK         0.0702 
    118 H118      -47.2163  -27.5304   16.1485 H         1 UNK         0.0785 
    119 H119      -48.8871  -27.9577   15.7862 H         1 UNK         0.0785 
    120 H120      -48.1986  -28.3432   17.3550 H         1 UNK         0.0785 
    121 H121      -48.6105  -25.5692   15.1029 H         1 UNK         0.2998 
    122 H122      -48.8227  -22.0308   15.3065 H         1 UNK         0.0697 
    123 H123      -47.1111  -22.1592   13.4969 H         1 UNK         0.0825 
    124 H124      -46.3754  -22.3914   15.0758 H         1 UNK         0.0825 
    125 H125      -46.6486  -23.7743   14.0274 H         1 UNK         0.0825 
    126 H126      -49.0133  -23.7521   13.0641 H         1 UNK         0.3029 
    127 H127      -52.4140  -24.7882   13.5432 H         1 UNK         0.0897 
    128 H128      -52.5310  -23.9398   11.1986 H         1 UNK         0.0792 
    129 H129      -52.5341  -22.6167   12.3534 H         1 UNK         0.0792 
    130 H130      -51.0687  -22.9889   11.4617 H         1 UNK         0.0792 
    131 H131      -50.3998  -25.4316   11.5909 H         1 UNK         0.3086 
    132 H132      -49.1601  -28.2908   13.3453 H         1 UNK         0.0583 
    133 H133      -51.3124  -29.0817   12.2929 H         1 UNK         0.1020 
    134 H134      -50.9082  -28.2210   10.8294 H         1 UNK         0.1020 
    135 H135      -50.1640  -32.4193   11.0128 H         1 UNK         0.0694 
    136 H136      -51.2178  -31.5098   12.0677 H         1 UNK         0.0694 
    137 H137      -48.5970  -27.1962   10.7569 H         1 UNK         0.2989 
    138 H138      -46.0165  -24.9886   11.8499 H         1 UNK         0.1055 
    139 H139      -44.9462  -27.2433   11.6977 H         1 UNK         0.0806 
    140 H140      -44.7126  -26.3297   10.2181 H         1 UNK         0.0806 
    141 H141      -45.9120  -27.6241   10.2799 H         1 UNK         0.0806 
    142 H142      -46.9148  -25.5424    9.2346 H         1 UNK         0.3061 
    143 H143      -49.5488  -24.3394    8.6841 H         1 UNK         0.0734 
    144 H144      -48.3340  -21.5720    9.1659 H         1 UNK         0.0832 
    145 H145      -49.5355  -21.9364    7.9273 H         1 UNK         0.0832 
    146 H146      -49.9355  -22.1153    9.6249 H         1 UNK         0.0832 
    147 H147      -48.1324  -24.6884    7.0658 H         1 UNK         0.3156 
    148 H148      -45.6971  -22.8483    5.5517 H         1 UNK         0.0589 
    149 H149      -44.0579  -24.7546    5.4843 H         1 UNK         0.0808 
    150 H150      -43.9051  -23.7946    6.9468 H         1 UNK         0.0808 
    151 H151      -44.7103  -25.3523    7.0093 H         1 UNK         0.0808 
    152 H152      -46.4776  -25.6209    5.2170 H         1 UNK         0.3098 
    153 H153      -49.6929  -25.0037    3.9719 H         1 UNK         0.0720 
    154 H154      -47.3378  -25.6224    2.1055 H         1 UNK         0.0791 
    155 H155      -48.4951  -24.3180    1.8813 H         1 UNK         0.0791 
    156 H156      -49.0361  -25.9845    1.7898 H         1 UNK         0.0791 
    157 H157      -48.1492  -27.3423    3.7098 H         1 UNK         0.3028 
@<TRIPOS>BOND
     1    1    2 1    
     2    1   82 1    
     3    1   83 1    
     4    1   84 1    
     5    2    3 2    
     6    2    4 am   BACKBONE|DICT|INTERRES
     7    4    5 1    
     8    4   85 1    
     9    5    6 1    
    10    5   80 1    
    11    5   86 1    
    12    6    7 1    
    13    6   87 1    
    14    6   88 1    
    15    7    8 1    
    16    8    9 1    
    17    8   89 1    
    18    8   90 1    
    19    9   10 ar   
    20    9   14 ar   
    21   10   11 ar   
    22   10   91 1    
    23   11   12 ar   
    24   11   58 1    
    25   12   13 ar   
    26   12   92 1    
    27   13   14 ar   
    28   13   15 1    
    29   14   93 1    
    30   15   16 1    
    31   15   94 1    
    32   15   95 1    
    33   16   17 1    
    34   17   18 1    
    35   17   96 1    
    36   17   97 1    
    37   18   19 1    
    38   18   22 1    
    39   18   98 1    
    40   19   20 am   BACKBONE|DICT|INTERRES
    41   19   21 2    
    42   20   99 1    
    43   20  100 1    
    44   22   23 am   BACKBONE|DICT|INTERRES
    45   22  101 1    
    46   23   24 2    
    47   23   25 1    
    48   25   26 1    
    49   25   27 1    
    50   25  102 1    
    51   26  103 1    
    52   26  104 1    
    53   26  105 1    
    54   27   28 am   BACKBONE|DICT|INTERRES
    55   27  106 1    
    56   28   29 2    
    57   28   30 1    
    58   30   31 1    
    59   30   32 1    
    60   30  107 1    
    61   31  108 1    
    62   31  109 1    
    63   31  110 1    
    64   32   33 am   BACKBONE|DICT|INTERRES
    65   32  111 1    
    66   33   34 2    
    67   33   35 1    
    68   35   36 1    
    69   35   37 1    
    70   35  112 1    
    71   36  113 1    
    72   36  114 1    
    73   36  115 1    
    74   37   38 am   BACKBONE|DICT|INTERRES
    75   37  116 1    
    76   38   39 2    
    77   38   40 1    
    78   40   41 1    
    79   40   42 1    
    80   40  117 1    
    81   41  118 1    
    82   41  119 1    
    83   41  120 1    
    84   42   43 am   BACKBONE|DICT|INTERRES
    85   42  121 1    
    86   43   44 2    
    87   43   45 1    
    88   45   46 1    
    89   45   47 1    
    90   45  122 1    
    91   46  123 1    
    92   46  124 1    
    93   46  125 1    
    94   47   48 am   BACKBONE|DICT|INTERRES
    95   47  126 1    
    96   48   49 2    
    97   48   50 1    
    98   50   51 1    
    99   50   52 1    
   100   50  127 1    
   101   51  128 1    
   102   51  129 1    
   103   51  130 1    
   104   52   53 am   BACKBONE|DICT|INTERRES
   105   52  131 1    
   106   53   54 2    
   107   53   55 1    
   108   55   56 1    
   109   55   59 1    
   110   55  132 1    
   111   56   57 1    
   112   56  133 1    
   113   56  134 1    
   114   57   58 1    
   115   58  135 1    
   116   58  136 1    
   117   59   60 am   BACKBONE|DICT|INTERRES
   118   59  137 1    
   119   60   61 2    
   120   60   62 1    
   121   62   63 1    
   122   62   64 1    
   123   62  138 1    
   124   63  139 1    
   125   63  140 1    
   126   63  141 1    
   127   64   65 am   BACKBONE|DICT|INTERRES
   128   64  142 1    
   129   65   66 2    
   130   65   67 1    
   131   67   68 1    
   132   67   69 1    
   133   67  143 1    
   134   68  144 1    
   135   68  145 1    
   136   68  146 1    
   137   69   70 am   BACKBONE|DICT|INTERRES
   138   69  147 1    
   139   70   71 2    
   140   70   72 1    
   141   72   73 1    
   142   72   74 1    
   143   72  148 1    
   144   73  149 1    
   145   73  150 1    
   146   73  151 1    
   147   74   75 am   BACKBONE|DICT|INTERRES
   148   74  152 1    
   149   75   76 2    
   150   75   77 1    
   151   77   78 1    
   152   77   79 1    
   153   77  153 1    
   154   78  154 1    
   155   78  155 1    
   156   78  156 1    
   157   79   80 am   BACKBONE|DICT|INTERRES
   158   79  157 1    
   159   80   81 2    
@<TRIPOS>SUBSTRUCTURE
     1 UNK         1 GROUP             0       ****    0 ROOT    
