@<TRIPOS>MOLECULE
3R207
157   159    1
SMALL
USER_CHARGES


@<TRIPOS>ATOM
      1 CA        -49.2373  -27.2917    0.5605 C.3       0 UNK        -0.1975 
      2 C         -49.8081  -27.3843    1.9681 C.2       0 UNK         0.4852 
      3 O         -50.7601  -28.1323    2.1947 O.2       0 UNK        -0.5216 
      4 N         -49.2360  -26.6308    2.9121 N.am      1 UNK        -0.4461 
      5 CA        -49.6527  -26.5517    4.3097 C.3       1 UNK         0.0864 
      6 C6        -49.1214  -27.7473    5.1430 C.3       14 UNK        -0.0898 
      7 S7        -50.0798  -28.0066    6.6719 S.3       14 UNK        -0.2598 
      8 C8        -50.3600  -29.8031    6.6148 C.3       14 UNK         0.0286 
      9 C9        -50.9709  -30.2928    7.9176 C.ar      14 UNK        -0.0844 
     10 C10       -50.1491  -30.7237    8.9625 C.ar      14 UNK        -0.0881 
     11 C11       -50.6994  -31.1425   10.1785 C.ar      14 UNK        -0.0643 
     12 C12       -52.0916  -31.1454   10.3334 C.ar      14 UNK        -0.0930 
     13 C13       -52.9229  -30.6974    9.3014 C.ar      14 UNK        -0.0827 
     14 C14       -52.3567  -30.2890    8.0901 C.ar      14 UNK        -0.1249 
     15 C15       -54.4291  -30.6137    9.4996 C.3       14 UNK         0.0141 
     16 S16       -54.9683  -28.8765    9.5694 S.3       14 UNK        -0.2313 
     17 C17       -56.7632  -29.0492    9.8399 C.3       14 UNK        -0.0915 
     18 CA        -57.2370  -28.3297   11.1336 C.3       13 UNK         0.0968 
     19 C         -58.7889  -28.2410   11.2186 C.2       13 UNK         0.5732 
     20 N         -59.4126  -28.5208   12.3577 N.am      13 UNK        -0.7310 
     21 O         -59.4450  -27.8921   10.2398 O.2       13 UNK        -0.5035 
     22 N         -56.6294  -28.9227   12.3374 N.am      13 UNK        -0.4233 
     23 C         -55.7158  -28.3342   13.1158 C.2       13 UNK         0.4989 
     24 O         -55.2554  -27.2045   12.9263 O.2       13 UNK        -0.4996 
     25 CA        -55.2292  -29.1615   14.3115 C.3       12 UNK         0.0216 
     26 CB        -54.4633  -30.4217   13.8596 C.3       12 UNK        -0.1964 
     27 N         -54.3732  -28.3247   15.1481 N.am      12 UNK        -0.4276 
     28 C         -54.1669  -28.4886   16.4589 C.2       12 UNK         0.5020 
     29 O         -54.6656  -29.4031   17.1170 O.2       12 UNK        -0.5489 
     30 CA        -53.2490  -27.4794   17.1677 C.3       11 UNK         0.0294 
     31 CB        -51.8902  -28.1250   17.4871 C.3       11 UNK        -0.2019 
     32 N         -53.0166  -26.2625   16.3880 N.am      11 UNK        -0.4493 
     33 C         -53.7445  -25.1414   16.4642 C.2       11 UNK         0.4932 
     34 O         -54.7619  -25.0282   17.1501 O.2       11 UNK        -0.5029 
     35 CA        -53.2046  -23.9426   15.6558 C.3       10 UNK         0.0280 
     36 CB        -53.9204  -22.6138   15.9766 C.3       10 UNK        -0.1976 
     37 N         -51.7467  -23.8106   15.7922 N.am      10 UNK        -0.4242 
     38 C         -51.0472  -23.6127   16.9218 C.2       10 UNK         0.5072 
     39 O         -51.5570  -23.3582   18.0139 O.2       10 UNK        -0.5224 
     40 CA        -49.5171  -23.7676   16.8435 C.3       9 UNK         0.0343 
     41 CB        -49.0935  -25.1026   17.4787 C.3       9 UNK        -0.2003 
     42 N         -48.9921  -23.7052   15.4768 N.am      9 UNK        -0.4272 
     43 C         -48.7671  -22.5649   14.8083 C.2       9 UNK         0.4988 
     44 O         -48.9387  -21.4438   15.2884 O.2       9 UNK        -0.5108 
     45 CA        -48.2900  -22.6941   13.3509 C.3       8 UNK         0.0248 
     46 CB        -46.7861  -23.0047   13.2928 C.3       8 UNK        -0.2001 
     47 N         -49.0316  -23.7042   12.5923 N.am      8 UNK        -0.4140 
     48 C         -50.3464  -23.6502   12.3319 C.2       8 UNK         0.5028 
     49 O         -51.0826  -22.7293   12.6853 O.2       8 UNK        -0.5428 
     50 CA        -50.9558  -24.8442   11.5859 C.3       7 UNK         0.0264 
     51 CB        -50.7650  -24.7068   10.0680 C.3       7 UNK        -0.1988 
     52 N         -50.3874  -26.1133   12.0298 N.am      7 UNK        -0.4454 
     53 C         -50.6793  -26.7115   13.1920 C.2       7 UNK         0.5027 
     54 O         -51.4464  -26.2511   14.0371 O.2       7 UNK        -0.5083 
     55 CA        -49.9962  -28.0670   13.4454 C.3       6 UNK         0.0844 
     56 C56       -50.6712  -29.1255   12.5459 C.3       14 UNK        -0.0967 
     57 S57       -50.2134  -30.8433   12.9524 S.3       14 UNK        -0.2604 
     58 C58       -49.7693  -31.5488   11.3223 C.3       14 UNK         0.0134 
     59 N         -48.5469  -28.0050   13.2364 N.am      6 UNK        -0.4116 
     60 C         -47.7033  -27.1476   13.8305 C.2       5 UNK         0.5034 
     61 O         -48.0334  -26.3284   14.6871 O.2       5 UNK        -0.5045 
     62 CA        -46.2488  -27.1627   13.3327 C.3       5 UNK         0.0224 
     63 CB        -45.4333  -28.2244   14.0874 C.3       5 UNK        -0.1978 
     64 N         -46.1188  -27.3776   11.8859 N.am      5 UNK        -0.4737 
     65 C         -46.6882  -26.6233   10.9351 C.2       4 UNK         0.5027 
     66 O         -47.4425  -25.6747   11.1652 O.2       4 UNK        -0.5211 
     67 CA        -46.4298  -27.0646    9.4870 C.3       4 UNK         0.0297 
     68 CB        -47.4531  -28.1361    9.0812 C.3       4 UNK        -0.1993 
     69 N         -46.4993  -25.9470    8.5431 N.am      4 UNK        -0.4486 
     70 C         -45.6011  -24.9544    8.4684 C.2       3 UNK         0.4961 
     71 O         -44.5951  -24.8919    9.1770 O.2       3 UNK        -0.5105 
     72 CA        -45.8261  -23.8632    7.4040 C.3       3 UNK         0.0299 
     73 CB        -44.8105  -24.0163    6.2593 C.3       3 UNK        -0.1972 
     74 N         -47.1747  -23.8598    6.8325 N.am      3 UNK        -0.4305 
     75 C         -48.2625  -23.3373    7.4092 C.2       2 UNK         0.5006 
     76 O         -48.2491  -22.7867    8.5096 O.2       2 UNK        -0.5106 
     77 CA        -49.5964  -23.4420    6.6424 C.3       2 UNK         0.0296 
     78 CB        -49.7917  -22.2254    5.7162 C.3       2 UNK        -0.2002 
     79 N         -49.8182  -24.7077    5.9206 N.am      2 UNK        -0.4032 
     80 C         -49.1632  -25.2001    4.8586 C.2       1 UNK         0.5000 
     81 O         -48.1894  -24.6503    4.3333 O.2       1 UNK        -0.5238 
     82 H82       -48.3990  -26.5973    0.5058 H         1 UNK         0.0889 
     83 H83       -50.0050  -26.9521   -0.1342 H         1 UNK         0.0889 
     84 H84       -48.8886  -28.2704    0.2321 H         1 UNK         0.0889 
     85 H85       -48.4816  -25.9930    2.6843 H         1 UNK         0.3028 
     86 H86       -50.7452  -26.5453    4.3299 H         1 UNK         0.0864 
     87 H87       -49.1775  -28.6620    4.5509 H         1 UNK         0.0720 
     88 H88       -48.0658  -27.6256    5.3943 H         1 UNK         0.0720 
     89 H89       -49.4141  -30.3152    6.4305 H         1 UNK         0.0814 
     90 H90       -51.0136  -30.0440    5.7748 H         1 UNK         0.0814 
     91 H91       -49.0758  -30.7133    8.8320 H         1 UNK         0.1469 
     92 H92       -52.5236  -31.4599   11.2732 H         1 UNK         0.1381 
     93 H93       -52.9959  -29.9344    7.2928 H         1 UNK         0.1206 
     94 H94       -54.9349  -31.1212    8.6770 H         1 UNK         0.0813 
     95 H95       -54.7293  -31.1217   10.4174 H         1 UNK         0.0813 
     96 H96       -57.2551  -28.6299    8.9604 H         1 UNK         0.0638 
     97 H97       -57.0382  -30.1049    9.8677 H         1 UNK         0.0638 
     98 H98       -56.9239  -27.2873   11.0540 H         1 UNK         0.0568 
     99 H99       -60.4175  -28.4508   12.3946 H         1 UNK         0.3450 
    100 H100      -58.8959  -28.7660   13.1863 H         1 UNK         0.3450 
    101 H101      -56.9527  -29.8499   12.5722 H         1 UNK         0.2987 
    102 H102      -56.1074  -29.4578   14.8893 H         1 UNK         0.0766 
    103 H103      -54.0598  -30.9716   14.7100 H         1 UNK         0.0798 
    104 H104      -53.6338  -30.1745   13.1995 H         1 UNK         0.0798 
    105 H105      -55.1137  -31.1081   13.3168 H         1 UNK         0.0798 
    106 H106      -53.9960  -27.5086   14.6803 H         1 UNK         0.3198 
    107 H107      -53.7275  -27.2142   18.1131 H         1 UNK         0.0843 
    108 H108      -51.3548  -28.4108   16.5817 H         1 UNK         0.0831 
    109 H109      -52.0174  -29.0265   18.0881 H         1 UNK         0.0831 
    110 H110      -51.2539  -27.4470   18.0560 H         1 UNK         0.0831 
    111 H111      -52.2482  -26.2770   15.7202 H         1 UNK         0.3133 
    112 H112      -53.3914  -24.1719   14.6055 H         1 UNK         0.0566 
    113 H113      -53.5174  -21.7945   15.3812 H         1 UNK         0.0814 
    114 H114      -54.9859  -22.6827   15.7543 H         1 UNK         0.0814 
    115 H115      -53.8261  -22.3431   17.0285 H         1 UNK         0.0814 
    116 H116      -51.2206  -24.0263   14.9559 H         1 UNK         0.3091 
    117 H117      -49.0742  -22.9592   17.4292 H         1 UNK         0.0702 
    118 H118      -49.4248  -25.1669   18.5160 H         1 UNK         0.0785 
    119 H119      -49.5206  -25.9534   16.9463 H         1 UNK         0.0785 
    120 H120      -48.0095  -25.2172   17.4762 H         1 UNK         0.0785 
    121 H121      -48.7679  -24.5946   15.0361 H         1 UNK         0.2998 
    122 H122      -48.4561  -21.7327   12.8605 H         1 UNK         0.0697 
    123 H123      -46.5513  -23.9479   13.7852 H         1 UNK         0.0825 
    124 H124      -46.2077  -22.2247   13.7896 H         1 UNK         0.0825 
    125 H125      -46.4324  -23.0673   12.2632 H         1 UNK         0.0825 
    126 H126      -48.4933  -24.4775   12.2069 H         1 UNK         0.3029 
    127 H127      -52.0282  -24.8549   11.7951 H         1 UNK         0.0897 
    128 H128      -51.2774  -25.5041    9.5291 H         1 UNK         0.0792 
    129 H129      -49.7106  -24.7389    9.7919 H         1 UNK         0.0792 
    130 H130      -51.1697  -23.7589    9.7111 H         1 UNK         0.0792 
    131 H131      -49.6823  -26.5227   11.4334 H         1 UNK         0.3086 
    132 H132      -50.1649  -28.3321   14.4904 H         1 UNK         0.0583 
    133 H133      -51.7572  -29.0605   12.6258 H         1 UNK         0.1020 
    134 H134      -50.4431  -28.9141   11.5001 H         1 UNK         0.1020 
    135 H135      -48.7433  -31.2517   11.0996 H         1 UNK         0.0694 
    136 H136      -49.7631  -32.6365   11.4011 H         1 UNK         0.0694 
    137 H137      -48.1661  -28.6487   12.5599 H         1 UNK         0.2989 
    138 H138      -45.8199  -26.1840   13.5550 H         1 UNK         0.1055 
    139 H139      -45.5010  -28.0737   15.1660 H         1 UNK         0.0806 
    140 H140      -44.3767  -28.1761   13.8231 H         1 UNK         0.0806 
    141 H141      -45.7872  -29.2344   13.8769 H         1 UNK         0.0806 
    142 H142      -45.5264  -28.1444   11.5993 H         1 UNK         0.3061 
    143 H143      -45.4279  -27.4950    9.4245 H         1 UNK         0.0734 
    144 H144      -47.2970  -28.4697    8.0551 H         1 UNK         0.0832 
    145 H145      -47.3732  -29.0165    9.7198 H         1 UNK         0.0832 
    146 H146      -48.4762  -27.7674    9.1650 H         1 UNK         0.0832 
    147 H147      -47.3121  -25.8988    7.9486 H         1 UNK         0.3156 
    148 H148      -45.6517  -22.8988    7.8860 H         1 UNK         0.0589 
    149 H149      -44.9384  -24.9619    5.7307 H         1 UNK         0.0808 
    150 H150      -44.9076  -23.2098    5.5322 H         1 UNK         0.0808 
    151 H151      -43.7871  -23.9886    6.6362 H         1 UNK         0.0808 
    152 H152      -47.2873  -24.2400    5.8950 H         1 UNK         0.3098 
    153 H153      -50.3847  -23.3992    7.3948 H         1 UNK         0.0720 
    154 H154      -50.7685  -22.2475    5.2330 H         1 UNK         0.0791 
    155 H155      -49.0320  -22.1782    4.9354 H         1 UNK         0.0791 
    156 H156      -49.7314  -21.2940    6.2810 H         1 UNK         0.0791 
    157 H157      -50.5607  -25.2806    6.2999 H         1 UNK         0.3028 
@<TRIPOS>BOND
     1    1    2 1    
     2    1   82 1    
     3    1   83 1    
     4    1   84 1    
     5    2    3 2    
     6    2    4 am   BACKBONE|DICT|INTERRES
     7    4    5 1    
     8    4   85 1    
     9    5    6 1    
    10    5   80 1    
    11    5   86 1    
    12    6    7 1    
    13    6   87 1    
    14    6   88 1    
    15    7    8 1    
    16    8    9 1    
    17    8   89 1    
    18    8   90 1    
    19    9   10 ar   
    20    9   14 ar   
    21   10   11 ar   
    22   10   91 1    
    23   11   12 ar   
    24   11   58 1    
    25   12   13 ar   
    26   12   92 1    
    27   13   14 ar   
    28   13   15 1    
    29   14   93 1    
    30   15   16 1    
    31   15   94 1    
    32   15   95 1    
    33   16   17 1    
    34   17   18 1    
    35   17   96 1    
    36   17   97 1    
    37   18   19 1    
    38   18   22 1    
    39   18   98 1    
    40   19   20 am   BACKBONE|DICT|INTERRES
    41   19   21 2    
    42   20   99 1    
    43   20  100 1    
    44   22   23 am   BACKBONE|DICT|INTERRES
    45   22  101 1    
    46   23   24 2    
    47   23   25 1    
    48   25   26 1    
    49   25   27 1    
    50   25  102 1    
    51   26  103 1    
    52   26  104 1    
    53   26  105 1    
    54   27   28 am   BACKBONE|DICT|INTERRES
    55   27  106 1    
    56   28   29 2    
    57   28   30 1    
    58   30   31 1    
    59   30   32 1    
    60   30  107 1    
    61   31  108 1    
    62   31  109 1    
    63   31  110 1    
    64   32   33 am   BACKBONE|DICT|INTERRES
    65   32  111 1    
    66   33   34 2    
    67   33   35 1    
    68   35   36 1    
    69   35   37 1    
    70   35  112 1    
    71   36  113 1    
    72   36  114 1    
    73   36  115 1    
    74   37   38 am   BACKBONE|DICT|INTERRES
    75   37  116 1    
    76   38   39 2    
    77   38   40 1    
    78   40   41 1    
    79   40   42 1    
    80   40  117 1    
    81   41  118 1    
    82   41  119 1    
    83   41  120 1    
    84   42   43 am   BACKBONE|DICT|INTERRES
    85   42  121 1    
    86   43   44 2    
    87   43   45 1    
    88   45   46 1    
    89   45   47 1    
    90   45  122 1    
    91   46  123 1    
    92   46  124 1    
    93   46  125 1    
    94   47   48 am   BACKBONE|DICT|INTERRES
    95   47  126 1    
    96   48   49 2    
    97   48   50 1    
    98   50   51 1    
    99   50   52 1    
   100   50  127 1    
   101   51  128 1    
   102   51  129 1    
   103   51  130 1    
   104   52   53 am   BACKBONE|DICT|INTERRES
   105   52  131 1    
   106   53   54 2    
   107   53   55 1    
   108   55   56 1    
   109   55   59 1    
   110   55  132 1    
   111   56   57 1    
   112   56  133 1    
   113   56  134 1    
   114   57   58 1    
   115   58  135 1    
   116   58  136 1    
   117   59   60 am   BACKBONE|DICT|INTERRES
   118   59  137 1    
   119   60   61 2    
   120   60   62 1    
   121   62   63 1    
   122   62   64 1    
   123   62  138 1    
   124   63  139 1    
   125   63  140 1    
   126   63  141 1    
   127   64   65 am   BACKBONE|DICT|INTERRES
   128   64  142 1    
   129   65   66 2    
   130   65   67 1    
   131   67   68 1    
   132   67   69 1    
   133   67  143 1    
   134   68  144 1    
   135   68  145 1    
   136   68  146 1    
   137   69   70 am   BACKBONE|DICT|INTERRES
   138   69  147 1    
   139   70   71 2    
   140   70   72 1    
   141   72   73 1    
   142   72   74 1    
   143   72  148 1    
   144   73  149 1    
   145   73  150 1    
   146   73  151 1    
   147   74   75 am   BACKBONE|DICT|INTERRES
   148   74  152 1    
   149   75   76 2    
   150   75   77 1    
   151   77   78 1    
   152   77   79 1    
   153   77  153 1    
   154   78  154 1    
   155   78  155 1    
   156   78  156 1    
   157   79   80 am   BACKBONE|DICT|INTERRES
   158   79  157 1    
   159   80   81 2    
@<TRIPOS>SUBSTRUCTURE
     1 UNK         1 GROUP             0       ****    0 ROOT    
