@<TRIPOS>MOLECULE
3R207
157   159    1
SMALL
USER_CHARGES


@<TRIPOS>ATOM
      1 CA        -45.6372  -28.5163    4.9663 C.3       0 UNK        -0.1975 
      2 C         -47.0931  -28.7293    4.5783 C.2       0 UNK         0.4852 
      3 O         -47.4729  -28.4204    3.4485 O.2       0 UNK        -0.5216 
      4 N         -47.9036  -29.2641    5.5033 N.am      1 UNK        -0.4461 
      5 CA        -49.3348  -29.5375    5.3185 C.3       1 UNK         0.0864 
      6 C6        -49.8909  -30.3897    6.4858 C.3       14 UNK        -0.0898 
      7 S7        -51.4415  -31.2453    6.0558 S.3       14 UNK        -0.2598 
      8 C8        -51.4356  -32.6067    7.2612 C.3       14 UNK         0.0286 
      9 C9        -51.8525  -32.1374    8.6477 C.ar      14 UNK        -0.0844 
     10 C10       -50.9022  -31.6510    9.5512 C.ar      14 UNK        -0.0881 
     11 C11       -51.2804  -31.2636   10.8404 C.ar      14 UNK        -0.0643 
     12 C12       -52.6197  -31.3901   11.2278 C.ar      14 UNK        -0.0930 
     13 C13       -53.5837  -31.8484   10.3253 C.ar      14 UNK        -0.0827 
     14 C14       -53.1921  -32.2198    9.0363 C.ar      14 UNK        -0.1249 
     15 C15       -55.0483  -31.9565   10.7375 C.3       14 UNK         0.0141 
     16 S16       -55.7748  -30.3645   11.2572 S.3       14 UNK        -0.2313 
     17 C17       -55.3200  -29.2601    9.8788 C.3       14 UNK        -0.0915 
     18 CA        -54.1820  -28.2758   10.2724 C.3       13 UNK         0.0968 
     19 C         -53.4633  -27.7277    9.0168 C.2       13 UNK         0.5732 
     20 N         -52.5814  -28.5192    8.4219 N.am      13 UNK        -0.7310 
     21 O         -53.7209  -26.6171    8.5570 O.2       13 UNK        -0.5035 
     22 N         -54.6791  -27.1762   11.1096 N.am      13 UNK        -0.4233 
     23 C         -54.6095  -27.1213   12.4430 C.2       13 UNK         0.4989 
     24 O         -54.0990  -27.9906   13.1495 O.2       13 UNK        -0.4996 
     25 CA        -55.2128  -25.8765   13.1070 C.3       12 UNK         0.0216 
     26 CB        -56.1375  -26.2505   14.2788 C.3       12 UNK        -0.1964 
     27 N         -54.1284  -25.0255   13.5906 N.am      12 UNK        -0.4276 
     28 C         -53.5499  -24.0656   12.8551 C.2       12 UNK         0.5020 
     29 O         -53.9423  -23.7627   11.7275 O.2       12 UNK        -0.5489 
     30 CA        -52.3244  -23.3336   13.4402 C.3       11 UNK         0.0294 
     31 CB        -52.2852  -21.8360   13.0691 C.3       11 UNK        -0.2019 
     32 N         -52.1330  -23.5192   14.8822 N.am      11 UNK        -0.4493 
     33 C         -52.9161  -23.0820   15.8796 C.2       11 UNK         0.4932 
     34 O         -53.9278  -22.3989   15.7154 O.2       11 UNK        -0.5029 
     35 CA        -52.4949  -23.5075   17.3020 C.3       10 UNK         0.0280 
     36 CB        -53.6561  -23.4343   18.3162 C.3       10 UNK        -0.1976 
     37 N         -51.8543  -24.8301   17.3413 N.am      10 UNK        -0.4242 
     38 C         -52.3773  -25.9945   16.9243 C.2       10 UNK         0.5072 
     39 O         -53.5120  -26.0948   16.4568 O.2       10 UNK        -0.5224 
     40 CA        -51.4684  -27.2362   16.9966 C.3       9 UNK         0.0343 
     41 CB        -51.9357  -28.3473   16.0405 C.3       9 UNK        -0.2003 
     42 N         -50.0814  -26.8895   16.6775 N.am      9 UNK        -0.4272 
     43 C         -49.1251  -26.6331   17.5820 C.2       9 UNK         0.4988 
     44 O         -49.3004  -26.7121   18.7979 O.2       9 UNK        -0.5108 
     45 CA        -47.7487  -26.1783   17.0594 C.3       8 UNK         0.0248 
     46 CB        -46.7784  -27.3694   17.0049 C.3       8 UNK        -0.2001 
     47 N         -47.7875  -25.5303   15.7455 N.am      8 UNK        -0.4140 
     48 C         -48.4307  -24.3895   15.4554 C.2       8 UNK         0.5028 
     49 O         -49.0582  -23.7243   16.2796 O.2       8 UNK        -0.5428 
     50 CA        -48.4203  -23.9480   13.9815 C.3       7 UNK         0.0264 
     51 CB        -47.2405  -23.0039   13.7067 C.3       7 UNK        -0.1988 
     52 N         -48.3826  -25.0651   13.0304 N.am      7 UNK        -0.4454 
     53 C         -49.3015  -26.0391   12.9286 C.2       7 UNK         0.5027 
     54 O         -50.2878  -26.0950   13.6663 O.2       7 UNK        -0.5083 
     55 CA        -49.0590  -27.1357   11.8584 C.3       6 UNK         0.0844 
     56 C56       -50.3385  -27.9217   11.4609 C.3       14 UNK        -0.0967 
     57 S57       -50.7269  -29.2270   12.6779 S.3       14 UNK        -0.2604 
     58 C58       -50.2311  -30.7590   11.8247 C.3       14 UNK         0.0134 
     59 N         -48.3587  -26.6102   10.6811 N.am      6 UNK        -0.4116 
     60 C         -47.0275  -26.5135   10.5513 C.2       5 UNK         0.5034 
     61 O         -46.2272  -26.8672   11.4166 O.2       5 UNK        -0.5045 
     62 CA        -46.5044  -25.8560    9.2677 C.3       5 UNK         0.0224 
     63 CB        -46.5508  -26.8357    8.0840 C.3       5 UNK        -0.1978 
     64 N         -47.2681  -24.6476    8.9508 N.am      5 UNK        -0.4737 
     65 C         -47.0253  -23.4437    9.4888 C.2       4 UNK         0.5027 
     66 O         -46.0943  -23.2202   10.2619 O.2       4 UNK        -0.5211 
     67 CA        -47.9681  -22.2897    9.1012 C.3       4 UNK         0.0297 
     68 CB        -47.3709  -21.4802    7.9391 C.3       4 UNK        -0.1993 
     69 N         -49.3126  -22.7393    8.7338 N.am      4 UNK        -0.4486 
     70 C         -50.2214  -23.2038    9.6029 C.2       3 UNK         0.4961 
     71 O         -50.0435  -23.2503   10.8181 O.2       3 UNK        -0.5105 
     72 CA        -51.5353  -23.7416    9.0068 C.3       3 UNK         0.0299 
     73 CB        -52.5651  -22.6103    8.8605 C.3       3 UNK        -0.1972 
     74 N         -51.3717  -24.3992    7.7060 N.am      3 UNK        -0.4305 
     75 C         -50.5856  -25.4546    7.4645 C.2       2 UNK         0.5006 
     76 O         -49.8676  -25.9930    8.3133 O.2       2 UNK        -0.5106 
     77 CA        -50.5574  -25.9554    6.0179 C.3       2 UNK         0.0296 
     78 CB        -49.7785  -24.9837    5.1113 C.3       2 UNK        -0.2002 
     79 N         -49.9103  -27.2606    5.9951 N.am      2 UNK        -0.4032 
     80 C         -50.1536  -28.2435    5.1219 C.2       1 UNK         0.5000 
     81 O         -50.9601  -28.1568    4.1937 O.2       1 UNK        -0.5238 
     82 H82       -45.4219  -28.8857    5.9685 H         1 UNK         0.0889 
     83 H83       -45.3918  -27.4552    4.9337 H         1 UNK         0.0889 
     84 H84       -44.9836  -29.0379    4.2677 H         1 UNK         0.0889 
     85 H85       -47.5193  -29.5199    6.4012 H         1 UNK         0.3028 
     86 H86       -49.4229  -30.1198    4.3982 H         1 UNK         0.0864 
     87 H87       -49.1603  -31.1547    6.7531 H         1 UNK         0.0720 
     88 H88       -50.0426  -29.7916    7.3862 H         1 UNK         0.0720 
     89 H89       -52.1212  -33.3806    6.9127 H         1 UNK         0.0814 
     90 H90       -50.4513  -33.0762    7.2959 H         1 UNK         0.0814 
     91 H91       -49.8645  -31.5884    9.2540 H         1 UNK         0.1469 
     92 H92       -52.9191  -31.1059   12.2279 H         1 UNK         0.1381 
     93 H93       -53.9289  -32.5873    8.3349 H         1 UNK         0.1206 
     94 H94       -55.6500  -32.3599    9.9216 H         1 UNK         0.0813 
     95 H95       -55.1342  -32.6677   11.5600 H         1 UNK         0.0813 
     96 H96       -55.0396  -29.8758    9.0223 H         1 UNK         0.0638 
     97 H97       -56.2090  -28.7109    9.5644 H         1 UNK         0.0638 
     98 H98       -53.4171  -28.8148   10.8326 H         1 UNK         0.0568 
     99 H99       -52.1295  -28.1972    7.5838 H         1 UNK         0.3450 
    100 H100      -52.4060  -29.4515    8.7668 H         1 UNK         0.3450 
    101 H101      -55.0279  -26.3787   10.5949 H         1 UNK         0.2987 
    102 H102      -55.8173  -25.3341   12.3765 H         1 UNK         0.0766 
    103 H103      -56.9766  -26.8546   13.9318 H         1 UNK         0.0798 
    104 H104      -56.5500  -25.3622   14.7574 H         1 UNK         0.0798 
    105 H105      -55.6168  -26.8292   15.0424 H         1 UNK         0.0798 
    106 H106      -53.7458  -25.2611   14.5008 H         1 UNK         0.3198 
    107 H107      -51.4666  -23.8056   12.9640 H         1 UNK         0.0843 
    108 H108      -53.1787  -21.3093   13.4047 H         1 UNK         0.0831 
    109 H109      -52.2178  -21.7040   11.9906 H         1 UNK         0.0831 
    110 H110      -51.4163  -21.3420   13.5034 H         1 UNK         0.0831 
    111 H111      -51.3380  -24.0888   15.1407 H         1 UNK         0.3133 
    112 H112      -51.7333  -22.7929   17.6174 H         1 UNK         0.0566 
    113 H113      -54.4848  -24.0827   18.0295 H         1 UNK         0.0814 
    114 H114      -54.0487  -22.4194   18.3899 H         1 UNK         0.0814 
    115 H115      -53.3308  -23.7270   19.3144 H         1 UNK         0.0814 
    116 H116      -50.8960  -24.8371   17.6655 H         1 UNK         0.3091 
    117 H117      -51.5350  -27.6244   18.0149 H         1 UNK         0.0702 
    118 H118      -51.2607  -29.2029   16.0571 H         1 UNK         0.0785 
    119 H119      -51.9957  -27.9853   15.0135 H         1 UNK         0.0785 
    120 H120      -52.9278  -28.7099   16.3122 H         1 UNK         0.0785 
    121 H121      -49.8805  -26.7511   15.6934 H         1 UNK         0.2998 
    122 H122      -47.3569  -25.4493   17.7719 H         1 UNK         0.0697 
    123 H123      -45.7731  -27.0519   16.7274 H         1 UNK         0.0825 
    124 H124      -47.1042  -28.1239   16.2875 H         1 UNK         0.0825 
    125 H125      -46.7038  -27.8569   17.9782 H         1 UNK         0.0825 
    126 H126      -47.3040  -26.0013   14.9946 H         1 UNK         0.3029 
    127 H127      -49.3399  -23.3906   13.8004 H         1 UNK         0.0897 
    128 H128      -47.2398  -22.1652   14.4045 H         1 UNK         0.0792 
    129 H129      -47.2986  -22.5848   12.7020 H         1 UNK         0.0792 
    130 H130      -46.2808  -23.5128   13.8044 H         1 UNK         0.0792 
    131 H131      -47.5965  -25.0906   12.3963 H         1 UNK         0.3086 
    132 H132      -48.3842  -27.8515   12.3328 H         1 UNK         0.0583 
    133 H133      -51.1977  -27.2556   11.3593 H         1 UNK         0.1020 
    134 H134      -50.2144  -28.3908   10.4834 H         1 UNK         0.1020 
    135 H135      -49.2700  -30.5988   11.3334 H         1 UNK         0.0694 
    136 H136      -50.0676  -31.5332   12.5753 H         1 UNK         0.0694 
    137 H137      -48.9450  -26.2841    9.9161 H         1 UNK         0.2989 
    138 H138      -45.4591  -25.5833    9.4335 H         1 UNK         0.1055 
    139 H139      -47.5566  -27.2092    7.8988 H         1 UNK         0.0806 
    140 H140      -45.9144  -27.7006    8.2759 H         1 UNK         0.0806 
    141 H141      -46.1917  -26.3653    7.1687 H         1 UNK         0.0806 
    142 H142      -48.0953  -24.7672    8.3814 H         1 UNK         0.3061 
    143 H143      -48.0536  -21.6311    9.9686 H         1 UNK         0.0734 
    144 H144      -47.2688  -22.0826    7.0355 H         1 UNK         0.0832 
    145 H145      -47.9878  -20.6139    7.6994 H         1 UNK         0.0832 
    146 H146      -46.3781  -21.1070    8.1948 H         1 UNK         0.0832 
    147 H147      -49.5509  -22.7245    7.7531 H         1 UNK         0.3156 
    148 H148      -51.9332  -24.4829    9.7035 H         1 UNK         0.0589 
    149 H149      -53.5332  -22.9981    8.5431 H         1 UNK         0.0808 
    150 H150      -52.2461  -21.8593    8.1368 H         1 UNK         0.0808 
    151 H151      -52.7261  -22.0996    9.8090 H         1 UNK         0.0808 
    152 H152      -51.9309  -24.0332    6.9489 H         1 UNK         0.3098 
    153 H153      -51.5880  -26.0491    5.6684 H         1 UNK         0.0720 
    154 H154      -50.2455  -23.9985    5.0874 H         1 UNK         0.0791 
    155 H155      -49.7440  -25.3459    4.0835 H         1 UNK         0.0791 
    156 H156      -48.7499  -24.8530    5.4505 H         1 UNK         0.0791 
    157 H157      -49.2806  -27.4231    6.7689 H         1 UNK         0.3028 
@<TRIPOS>BOND
     1    1    2 1    
     2    1   82 1    
     3    1   83 1    
     4    1   84 1    
     5    2    3 2    
     6    2    4 am   BACKBONE|DICT|INTERRES
     7    4    5 1    
     8    4   85 1    
     9    5    6 1    
    10    5   80 1    
    11    5   86 1    
    12    6    7 1    
    13    6   87 1    
    14    6   88 1    
    15    7    8 1    
    16    8    9 1    
    17    8   89 1    
    18    8   90 1    
    19    9   10 ar   
    20    9   14 ar   
    21   10   11 ar   
    22   10   91 1    
    23   11   12 ar   
    24   11   58 1    
    25   12   13 ar   
    26   12   92 1    
    27   13   14 ar   
    28   13   15 1    
    29   14   93 1    
    30   15   16 1    
    31   15   94 1    
    32   15   95 1    
    33   16   17 1    
    34   17   18 1    
    35   17   96 1    
    36   17   97 1    
    37   18   19 1    
    38   18   22 1    
    39   18   98 1    
    40   19   20 am   BACKBONE|DICT|INTERRES
    41   19   21 2    
    42   20   99 1    
    43   20  100 1    
    44   22   23 am   BACKBONE|DICT|INTERRES
    45   22  101 1    
    46   23   24 2    
    47   23   25 1    
    48   25   26 1    
    49   25   27 1    
    50   25  102 1    
    51   26  103 1    
    52   26  104 1    
    53   26  105 1    
    54   27   28 am   BACKBONE|DICT|INTERRES
    55   27  106 1    
    56   28   29 2    
    57   28   30 1    
    58   30   31 1    
    59   30   32 1    
    60   30  107 1    
    61   31  108 1    
    62   31  109 1    
    63   31  110 1    
    64   32   33 am   BACKBONE|DICT|INTERRES
    65   32  111 1    
    66   33   34 2    
    67   33   35 1    
    68   35   36 1    
    69   35   37 1    
    70   35  112 1    
    71   36  113 1    
    72   36  114 1    
    73   36  115 1    
    74   37   38 am   BACKBONE|DICT|INTERRES
    75   37  116 1    
    76   38   39 2    
    77   38   40 1    
    78   40   41 1    
    79   40   42 1    
    80   40  117 1    
    81   41  118 1    
    82   41  119 1    
    83   41  120 1    
    84   42   43 am   BACKBONE|DICT|INTERRES
    85   42  121 1    
    86   43   44 2    
    87   43   45 1    
    88   45   46 1    
    89   45   47 1    
    90   45  122 1    
    91   46  123 1    
    92   46  124 1    
    93   46  125 1    
    94   47   48 am   BACKBONE|DICT|INTERRES
    95   47  126 1    
    96   48   49 2    
    97   48   50 1    
    98   50   51 1    
    99   50   52 1    
   100   50  127 1    
   101   51  128 1    
   102   51  129 1    
   103   51  130 1    
   104   52   53 am   BACKBONE|DICT|INTERRES
   105   52  131 1    
   106   53   54 2    
   107   53   55 1    
   108   55   56 1    
   109   55   59 1    
   110   55  132 1    
   111   56   57 1    
   112   56  133 1    
   113   56  134 1    
   114   57   58 1    
   115   58  135 1    
   116   58  136 1    
   117   59   60 am   BACKBONE|DICT|INTERRES
   118   59  137 1    
   119   60   61 2    
   120   60   62 1    
   121   62   63 1    
   122   62   64 1    
   123   62  138 1    
   124   63  139 1    
   125   63  140 1    
   126   63  141 1    
   127   64   65 am   BACKBONE|DICT|INTERRES
   128   64  142 1    
   129   65   66 2    
   130   65   67 1    
   131   67   68 1    
   132   67   69 1    
   133   67  143 1    
   134   68  144 1    
   135   68  145 1    
   136   68  146 1    
   137   69   70 am   BACKBONE|DICT|INTERRES
   138   69  147 1    
   139   70   71 2    
   140   70   72 1    
   141   72   73 1    
   142   72   74 1    
   143   72  148 1    
   144   73  149 1    
   145   73  150 1    
   146   73  151 1    
   147   74   75 am   BACKBONE|DICT|INTERRES
   148   74  152 1    
   149   75   76 2    
   150   75   77 1    
   151   77   78 1    
   152   77   79 1    
   153   77  153 1    
   154   78  154 1    
   155   78  155 1    
   156   78  156 1    
   157   79   80 am   BACKBONE|DICT|INTERRES
   158   79  157 1    
   159   80   81 2    
@<TRIPOS>SUBSTRUCTURE
     1 UNK         1 GROUP             0       ****    0 ROOT    
