@<TRIPOS>MOLECULE
3R207
157   159    1
SMALL
USER_CHARGES


@<TRIPOS>ATOM
      1 CA        -47.0142  -28.5631   10.9304 C.3       0 UNK        -0.1975 
      2 C         -47.2854  -28.0032    9.5432 C.2       0 UNK         0.4852 
      3 O         -47.2350  -26.7895    9.3539 O.2       0 UNK        -0.5216 
      4 N         -47.5680  -28.8760    8.5646 N.am      1 UNK        -0.4461 
      5 CA        -47.8481  -28.5257    7.1614 C.3       1 UNK         0.0864 
      6 C6        -49.0673  -27.5679    7.0294 C.3       14 UNK        -0.0898 
      7 S7        -50.0377  -27.8159    5.5052 S.3       14 UNK        -0.2598 
      8 C8        -51.4990  -28.7200    6.1272 C.3       14 UNK         0.0286 
      9 C9        -52.3056  -27.9674    7.1853 C.ar      14 UNK        -0.0844 
     10 C10       -52.5134  -26.5864    7.1000 C.ar      14 UNK        -0.0881 
     11 C11       -53.2434  -25.9146    8.0831 C.ar      14 UNK        -0.0643 
     12 C12       -53.8003  -26.6376    9.1415 C.ar      14 UNK        -0.0930 
     13 C13       -53.6180  -28.0229    9.2372 C.ar      14 UNK        -0.0827 
     14 C14       -52.8646  -28.6744    8.2549 C.ar      14 UNK        -0.1249 
     15 C15       -54.2470  -28.8539   10.3574 C.3       14 UNK         0.0141 
     16 S16       -54.3677  -27.9992   11.9639 S.3       14 UNK        -0.2313 
     17 C17       -55.9915  -27.1662   11.8421 C.3       14 UNK        -0.0915 
     18 CA        -57.0251  -27.6641   12.8877 C.3       13 UNK         0.0968 
     19 C         -57.5743  -29.0829   12.5518 C.2       13 UNK         0.5732 
     20 N         -57.4303  -30.0862   13.4109 N.am      13 UNK        -0.7310 
     21 O         -58.1593  -29.2735   11.4882 O.2       13 UNK        -0.5035 
     22 N         -56.5072  -27.5122   14.2531 N.am      13 UNK        -0.4233 
     23 C         -57.2473  -27.3973   15.3619 C.2       13 UNK         0.4989 
     24 O         -58.4738  -27.2788   15.3535 O.2       13 UNK        -0.4996 
     25 CA        -56.4824  -27.4257   16.7045 C.3       12 UNK         0.0216 
     26 CB        -57.3627  -27.9129   17.8752 C.3       12 UNK        -0.1964 
     27 N         -55.2213  -28.1867   16.6578 N.am      12 UNK        -0.4276 
     28 C         -55.0766  -29.4794   16.3229 C.2       12 UNK         0.5020 
     29 O         -56.0166  -30.2040   15.9929 O.2       12 UNK        -0.5489 
     30 CA        -53.6554  -30.0650   16.2914 C.3       11 UNK         0.0294 
     31 CB        -53.2508  -30.3997   14.8459 C.3       11 UNK        -0.2019 
     32 N         -52.6336  -29.1901   16.8720 N.am      11 UNK        -0.4493 
     33 C         -52.3190  -29.1496   18.1736 C.2       11 UNK         0.4932 
     34 O         -52.9321  -29.7695   19.0427 O.2       11 UNK        -0.5029 
     35 CA        -51.1109  -28.2918   18.5768 C.3       10 UNK         0.0280 
     36 CB        -49.8009  -29.0350   18.2654 C.3       10 UNK        -0.1976 
     37 N         -51.1073  -27.0006   17.8869 N.am      10 UNK        -0.4242 
     38 C         -51.1585  -25.8057   18.4936 C.2       10 UNK         0.5072 
     39 O         -51.1946  -25.6571   19.7163 O.2       10 UNK        -0.5224 
     40 CA        -51.1651  -24.5493   17.5981 C.3       9 UNK         0.0343 
     41 CB        -49.7506  -23.9549   17.5002 C.3       9 UNK        -0.2003 
     42 N         -51.6803  -24.7784   16.2460 N.am      9 UNK        -0.4272 
     43 C         -52.9331  -25.1555   15.9587 C.2       9 UNK         0.4988 
     44 O         -53.8170  -25.2956   16.8029 O.2       9 UNK        -0.5108 
     45 CA        -53.2532  -25.4842   14.4914 C.3       8 UNK         0.0248 
     46 CB        -53.8731  -24.2645   13.7919 C.3       8 UNK        -0.2001 
     47 N         -52.1339  -25.9835   13.6842 N.am      8 UNK        -0.4140 
     48 C         -51.3134  -27.0044   13.9746 C.2       8 UNK         0.5028 
     49 O         -51.3068  -27.5832   15.0625 O.2       8 UNK        -0.5428 
     50 CA        -50.3516  -27.4829   12.8706 C.3       7 UNK         0.0264 
     51 CB        -50.5475  -28.9835   12.5929 C.3       7 UNK        -0.1988 
     52 N         -50.4877  -26.7507   11.6056 N.am      7 UNK        -0.4454 
     53 C         -49.9272  -25.5613   11.3478 C.2       7 UNK         0.5027 
     54 O         -49.2642  -24.9331   12.1747 O.2       7 UNK        -0.5083 
     55 CA        -50.1954  -24.9839    9.9462 C.3       6 UNK         0.0844 
     56 C56       -51.4065  -24.0101    9.9446 C.3       14 UNK        -0.0967 
     57 S57       -51.8765  -23.4980    8.2558 S.3       14 UNK        -0.2604 
     58 C58       -53.4350  -24.4069    7.9971 C.3       14 UNK         0.0134 
     59 N         -48.9621  -24.4565    9.3536 N.am      6 UNK        -0.4116 
     60 C         -48.3475  -23.2864    9.5762 C.2       5 UNK         0.5034 
     61 O         -48.7562  -22.4042   10.3325 O.2       5 UNK        -0.5045 
     62 CA        -47.0466  -23.0430    8.7873 C.3       5 UNK         0.0224 
     63 CB        -45.8205  -23.4999    9.5937 C.3       5 UNK        -0.1978 
     64 N         -47.0308  -23.6868    7.4678 N.am      5 UNK        -0.4737 
     65 C         -47.8128  -23.3181    6.4402 C.2       4 UNK         0.5027 
     66 O         -48.6161  -22.3865    6.5027 O.2       4 UNK        -0.5211 
     67 CA        -47.6639  -24.1114    5.1246 C.3       4 UNK         0.0297 
     68 CB        -48.2573  -23.3758    3.9042 C.3       4 UNK        -0.1993 
     69 N         -46.2846  -24.5365    4.8605 N.am      4 UNK        -0.4486 
     70 C         -45.2025  -23.7512    4.7205 C.2       3 UNK         0.4961 
     71 O         -45.2494  -22.5201    4.7111 O.2       3 UNK        -0.5105 
     72 CA        -43.8328  -24.4508    4.5628 C.3       3 UNK         0.0299 
     73 CB        -42.6867  -23.6431    5.2095 C.3       3 UNK        -0.1972 
     74 N         -43.8092  -25.8448    5.0291 N.am      3 UNK        -0.4305 
     75 C         -44.0656  -26.2869    6.2687 C.2       2 UNK         0.5006 
     76 O         -44.3260  -25.5602    7.2299 O.2       2 UNK        -0.5106 
     77 CA        -44.1007  -27.8143    6.4436 C.3       2 UNK         0.0296 
     78 CB        -42.9849  -28.2809    7.3928 C.3       2 UNK        -0.2002 
     79 N         -45.3960  -28.2669    6.9568 N.am      2 UNK        -0.4032 
     80 C         -46.5936  -28.0243    6.3983 C.2       1 UNK         0.5000 
     81 O         -46.7217  -27.4365    5.3214 O.2       1 UNK        -0.5238 
     82 H82       -47.5664  -27.9945   11.6771 H         1 UNK         0.0889 
     83 H83       -45.9528  -28.4849   11.1633 H         1 UNK         0.0889 
     84 H84       -47.3086  -29.6090   11.0131 H         1 UNK         0.0889 
     85 H85       -47.5954  -29.8646    8.7763 H         1 UNK         0.3028 
     86 H86       -48.1130  -29.4722    6.6876 H         1 UNK         0.0864 
     87 H87       -49.7349  -27.7053    7.8799 H         1 UNK         0.0720 
     88 H88       -48.7567  -26.5237    7.0800 H         1 UNK         0.0720 
     89 H89       -51.1621  -29.6811    6.5188 H         1 UNK         0.0814 
     90 H90       -52.1554  -28.9433    5.2854 H         1 UNK         0.0814 
     91 H91       -52.0933  -26.0244    6.2772 H         1 UNK         0.1469 
     92 H92       -54.3806  -26.1128    9.8854 H         1 UNK         0.1381 
     93 H93       -52.7222  -29.7450    8.3167 H         1 UNK         0.1206 
     94 H94       -53.6522  -29.7542   10.5185 H         1 UNK         0.0813 
     95 H95       -55.2339  -29.1966   10.0437 H         1 UNK         0.0813 
     96 H96       -56.3894  -27.2605   10.8302 H         1 UNK         0.0638 
     97 H97       -55.8243  -26.0986   11.9864 H         1 UNK         0.0638 
     98 H98       -57.8902  -27.0041   12.8024 H         1 UNK         0.0568 
     99 H99       -57.8018  -30.9901   13.1685 H         1 UNK         0.3450 
    100 H100      -56.9549  -29.9643   14.2998 H         1 UNK         0.3450 
    101 H101      -55.5128  -27.6431   14.3496 H         1 UNK         0.2987 
    102 H102      -56.2109  -26.3902   16.9117 H         1 UNK         0.0766 
    103 H103      -58.2321  -27.2679   18.0089 H         1 UNK         0.0798 
    104 H104      -56.8107  -27.9068   18.8151 H         1 UNK         0.0798 
    105 H105      -57.7317  -28.9256   17.7095 H         1 UNK         0.0798 
    106 H106      -54.3897  -27.6666   16.9069 H         1 UNK         0.3198 
    107 H107      -53.6843  -30.9999   16.8556 H         1 UNK         0.0843 
    108 H108      -53.1944  -29.5046   14.2278 H         1 UNK         0.0831 
    109 H109      -53.9713  -31.0725   14.3785 H         1 UNK         0.0831 
    110 H110      -52.2792  -30.8925   14.8100 H         1 UNK         0.0831 
    111 H111      -52.0802  -28.6458   16.2090 H         1 UNK         0.3133 
    112 H112      -51.1651  -28.1488   19.6579 H         1 UNK         0.0566 
    113 H113      -48.9360  -28.4739   18.6195 H         1 UNK         0.0814 
    114 H114      -49.6743  -29.2029   17.1948 H         1 UNK         0.0814 
    115 H115      -49.7774  -30.0096   18.7552 H         1 UNK         0.0814 
    116 H116      -51.0963  -27.0306   16.8705 H         1 UNK         0.3091 
    117 H117      -51.8133  -23.8131   18.0781 H         1 UNK         0.0702 
    118 H118      -49.7512  -23.0162   16.9458 H         1 UNK         0.0785 
    119 H119      -49.0591  -24.6384   17.0057 H         1 UNK         0.0785 
    120 H120      -49.3466  -23.7430   18.4913 H         1 UNK         0.0785 
    121 H121      -51.0198  -24.7002   15.4862 H         1 UNK         0.2998 
    122 H122      -53.9983  -26.2790   14.5074 H         1 UNK         0.0697 
    123 H123      -53.1676  -23.4349   13.7289 H         1 UNK         0.0825 
    124 H124      -54.7498  -23.9069   14.3341 H         1 UNK         0.0825 
    125 H125      -54.1977  -24.5048   12.7798 H         1 UNK         0.0825 
    126 H126      -52.0406  -25.5802   12.7657 H         1 UNK         0.3029 
    127 H127      -49.3401  -27.3391   13.2560 H         1 UNK         0.0897 
    128 H128      -51.5535  -29.2010   12.2335 H         1 UNK         0.0792 
    129 H129      -50.3899  -29.5742   13.4964 H         1 UNK         0.0792 
    130 H130      -49.8417  -29.3471   11.8465 H         1 UNK         0.0792 
    131 H131      -51.0458  -27.1968   10.8899 H         1 UNK         0.3086 
    132 H132      -50.4623  -25.8258    9.3058 H         1 UNK         0.0583 
    133 H133      -52.2708  -24.4714   10.4246 H         1 UNK         0.1020 
    134 H134      -51.1950  -23.1166   10.5334 H         1 UNK         0.1020 
    135 H135      -54.1737  -24.0636    8.7231 H         1 UNK         0.0694 
    136 H136      -53.8321  -24.1523    7.0135 H         1 UNK         0.0694 
    137 H137      -48.4318  -25.1358    8.8218 H         1 UNK         0.2989 
    138 H138      -46.9642  -21.9651    8.6305 H         1 UNK         0.1055 
    139 H139      -45.8212  -24.5781    9.7557 H         1 UNK         0.0806 
    140 H140      -45.7970  -23.0221   10.5740 H         1 UNK         0.0806 
    141 H141      -44.8923  -23.2418    9.0833 H         1 UNK         0.0806 
    142 H142      -46.3593  -24.4343    7.3338 H         1 UNK         0.3061 
    143 H143      -48.2403  -25.0273    5.2593 H         1 UNK         0.0734 
    144 H144      -49.3216  -23.1834    4.0447 H         1 UNK         0.0832 
    145 H145      -47.7732  -22.4134    3.7360 H         1 UNK         0.0832 
    146 H146      -48.1545  -23.9683    2.9952 H         1 UNK         0.0832 
    147 H147      -46.1486  -25.5438    4.8688 H         1 UNK         0.3156 
    148 H148      -43.6416  -24.4902    3.4895 H         1 UNK         0.0589 
    149 H149      -41.7267  -24.1432    5.0824 H         1 UNK         0.0808 
    150 H150      -42.5968  -22.6555    4.7556 H         1 UNK         0.0808 
    151 H151      -42.8494  -23.4946    6.2776 H         1 UNK         0.0808 
    152 H152      -43.6390  -26.5343    4.3091 H         1 UNK         0.3098 
    153 H153      -43.9478  -28.2912    5.4734 H         1 UNK         0.0720 
    154 H154      -42.0058  -27.9694    7.0262 H         1 UNK         0.0791 
    155 H155      -42.9657  -29.3672    7.4821 H         1 UNK         0.0791 
    156 H156      -43.1057  -27.8626    8.3933 H         1 UNK         0.0791 
    157 H157      -45.3863  -28.7298    7.8529 H         1 UNK         0.3028 
@<TRIPOS>BOND
     1    1    2 1    
     2    1   82 1    
     3    1   83 1    
     4    1   84 1    
     5    2    3 2    
     6    2    4 am   BACKBONE|DICT|INTERRES
     7    4    5 1    
     8    4   85 1    
     9    5    6 1    
    10    5   80 1    
    11    5   86 1    
    12    6    7 1    
    13    6   87 1    
    14    6   88 1    
    15    7    8 1    
    16    8    9 1    
    17    8   89 1    
    18    8   90 1    
    19    9   10 ar   
    20    9   14 ar   
    21   10   11 ar   
    22   10   91 1    
    23   11   12 ar   
    24   11   58 1    
    25   12   13 ar   
    26   12   92 1    
    27   13   14 ar   
    28   13   15 1    
    29   14   93 1    
    30   15   16 1    
    31   15   94 1    
    32   15   95 1    
    33   16   17 1    
    34   17   18 1    
    35   17   96 1    
    36   17   97 1    
    37   18   19 1    
    38   18   22 1    
    39   18   98 1    
    40   19   20 am   BACKBONE|DICT|INTERRES
    41   19   21 2    
    42   20   99 1    
    43   20  100 1    
    44   22   23 am   BACKBONE|DICT|INTERRES
    45   22  101 1    
    46   23   24 2    
    47   23   25 1    
    48   25   26 1    
    49   25   27 1    
    50   25  102 1    
    51   26  103 1    
    52   26  104 1    
    53   26  105 1    
    54   27   28 am   BACKBONE|DICT|INTERRES
    55   27  106 1    
    56   28   29 2    
    57   28   30 1    
    58   30   31 1    
    59   30   32 1    
    60   30  107 1    
    61   31  108 1    
    62   31  109 1    
    63   31  110 1    
    64   32   33 am   BACKBONE|DICT|INTERRES
    65   32  111 1    
    66   33   34 2    
    67   33   35 1    
    68   35   36 1    
    69   35   37 1    
    70   35  112 1    
    71   36  113 1    
    72   36  114 1    
    73   36  115 1    
    74   37   38 am   BACKBONE|DICT|INTERRES
    75   37  116 1    
    76   38   39 2    
    77   38   40 1    
    78   40   41 1    
    79   40   42 1    
    80   40  117 1    
    81   41  118 1    
    82   41  119 1    
    83   41  120 1    
    84   42   43 am   BACKBONE|DICT|INTERRES
    85   42  121 1    
    86   43   44 2    
    87   43   45 1    
    88   45   46 1    
    89   45   47 1    
    90   45  122 1    
    91   46  123 1    
    92   46  124 1    
    93   46  125 1    
    94   47   48 am   BACKBONE|DICT|INTERRES
    95   47  126 1    
    96   48   49 2    
    97   48   50 1    
    98   50   51 1    
    99   50   52 1    
   100   50  127 1    
   101   51  128 1    
   102   51  129 1    
   103   51  130 1    
   104   52   53 am   BACKBONE|DICT|INTERRES
   105   52  131 1    
   106   53   54 2    
   107   53   55 1    
   108   55   56 1    
   109   55   59 1    
   110   55  132 1    
   111   56   57 1    
   112   56  133 1    
   113   56  134 1    
   114   57   58 1    
   115   58  135 1    
   116   58  136 1    
   117   59   60 am   BACKBONE|DICT|INTERRES
   118   59  137 1    
   119   60   61 2    
   120   60   62 1    
   121   62   63 1    
   122   62   64 1    
   123   62  138 1    
   124   63  139 1    
   125   63  140 1    
   126   63  141 1    
   127   64   65 am   BACKBONE|DICT|INTERRES
   128   64  142 1    
   129   65   66 2    
   130   65   67 1    
   131   67   68 1    
   132   67   69 1    
   133   67  143 1    
   134   68  144 1    
   135   68  145 1    
   136   68  146 1    
   137   69   70 am   BACKBONE|DICT|INTERRES
   138   69  147 1    
   139   70   71 2    
   140   70   72 1    
   141   72   73 1    
   142   72   74 1    
   143   72  148 1    
   144   73  149 1    
   145   73  150 1    
   146   73  151 1    
   147   74   75 am   BACKBONE|DICT|INTERRES
   148   74  152 1    
   149   75   76 2    
   150   75   77 1    
   151   77   78 1    
   152   77   79 1    
   153   77  153 1    
   154   78  154 1    
   155   78  155 1    
   156   78  156 1    
   157   79   80 am   BACKBONE|DICT|INTERRES
   158   79  157 1    
   159   80   81 2    
@<TRIPOS>SUBSTRUCTURE
     1 UNK         1 GROUP             0       ****    0 ROOT    
