@<TRIPOS>MOLECULE
3R207
157   159    1
SMALL
USER_CHARGES


@<TRIPOS>ATOM
      1 CA        -47.1958  -26.2589    3.3829 C.3       0 UNK        -0.1975 
      2 C         -48.2577  -26.6848    4.3851 C.2       0 UNK         0.4852 
      3 O         -48.2197  -26.2513    5.5374 O.2       0 UNK        -0.5216 
      4 N         -49.2062  -27.5299    3.9589 N.am      1 UNK        -0.4461 
      5 CA        -50.2874  -28.0670    4.7916 C.3       1 UNK         0.0864 
      6 C6        -51.3160  -28.8737    3.9623 C.3       14 UNK        -0.0898 
      7 S7        -52.2672  -27.7773    2.8567 S.3       14 UNK        -0.2598 
      8 C8        -53.9499  -27.8669    3.5651 C.3       14 UNK         0.0286 
      9 C9        -54.0107  -27.5741    5.0627 C.ar      14 UNK        -0.0844 
     10 C10       -53.3952  -26.4387    5.6011 C.ar      14 UNK        -0.0881 
     11 C11       -53.4335  -26.1943    6.9770 C.ar      14 UNK        -0.0643 
     12 C12       -54.1332  -27.0686    7.8133 C.ar      14 UNK        -0.0930 
     13 C13       -54.7777  -28.1906    7.2851 C.ar      14 UNK        -0.0827 
     14 C14       -54.7024  -28.4441    5.9122 C.ar      14 UNK        -0.1249 
     15 C15       -55.5809  -29.1084    8.1941 C.3       14 UNK         0.0141 
     16 S16       -54.5102  -30.2131    9.1641 S.3       14 UNK        -0.2313 
     17 C17       -55.7634  -31.0611   10.1832 C.3       14 UNK        -0.0915 
     18 CA        -56.0485  -30.3134   11.5187 C.3       13 UNK         0.0968 
     19 C         -57.3118  -30.8422   12.2688 C.2       13 UNK         0.5732 
     20 N         -57.3905  -30.7376   13.5914 N.am      13 UNK        -0.7310 
     21 O         -58.2554  -31.3232   11.6453 O.2       13 UNK        -0.5035 
     22 N         -54.8555  -30.1678   12.3699 N.am      13 UNK        -0.4233 
     23 C         -54.2172  -31.1506   13.0219 C.2       13 UNK         0.4989 
     24 O         -54.4640  -32.3491   12.8815 O.2       13 UNK        -0.4996 
     25 CA        -53.1386  -30.7274   14.0400 C.3       12 UNK         0.0216 
     26 CB        -51.7387  -30.8803   13.4236 C.3       12 UNK        -0.1964 
     27 N         -53.2877  -29.3629   14.5668 N.am      12 UNK        -0.4276 
     28 C         -54.3624  -28.8622   15.1904 C.2       12 UNK         0.5020 
     29 O         -55.3794  -29.5167   15.4313 O.2       12 UNK        -0.5489 
     30 CA        -54.2942  -27.3695   15.5680 C.3       11 UNK         0.0294 
     31 CB        -55.6885  -26.7794   15.8515 C.3       11 UNK        -0.2019 
     32 N         -53.4262  -27.1018   16.7166 N.am      11 UNK        -0.4493 
     33 C         -52.0906  -27.1908   16.7266 C.2       11 UNK         0.4932 
     34 O         -51.4198  -27.6137   15.7832 O.2       11 UNK        -0.5029 
     35 CA        -51.3926  -26.7412   18.0226 C.3       10 UNK         0.0280 
     36 CB        -51.2438  -27.9303   18.9855 C.3       10 UNK        -0.1976 
     37 N         -50.0711  -26.1515   17.7829 N.am      10 UNK        -0.4242 
     38 C         -49.8211  -25.0777   17.0190 C.2       10 UNK         0.5072 
     39 O         -50.6992  -24.4210   16.4535 O.2       10 UNK        -0.5224 
     40 CA        -48.3367  -24.6792   16.8843 C.3       9 UNK         0.0343 
     41 CB        -47.4587  -25.8594   16.4228 C.3       9 UNK        -0.2003 
     42 N         -48.1410  -23.5464   15.9712 N.am      9 UNK        -0.4272 
     43 C         -48.3653  -22.2675   16.3044 C.2       9 UNK         0.4988 
     44 O         -48.7530  -21.9242   17.4233 O.2       9 UNK        -0.5108 
     45 CA        -48.0837  -21.1620   15.2714 C.3       8 UNK         0.0248 
     46 CB        -46.7832  -20.4196   15.6483 C.3       8 UNK        -0.2001 
     47 N         -48.0197  -21.5988   13.8681 N.am      8 UNK        -0.4140 
     48 C         -48.1564  -20.7522   12.8349 C.2       8 UNK         0.5028 
     49 O         -48.4814  -19.5696   12.9587 O.2       8 UNK        -0.5428 
     50 CA        -47.8335  -21.2804   11.4271 C.3       7 UNK         0.0264 
     51 CB        -46.3369  -21.6075   11.2900 C.3       7 UNK        -0.1988 
     52 N         -48.6301  -22.4391   11.0311 N.am      7 UNK        -0.4454 
     53 C         -49.9414  -22.4134   10.7471 C.2       7 UNK         0.5027 
     54 O         -50.6447  -21.4057   10.8278 O.2       7 UNK        -0.5083 
     55 CA        -50.5672  -23.7391   10.2714 C.3       6 UNK         0.0844 
     56 C56       -50.3936  -23.8991    8.7395 C.3       14 UNK        -0.0967 
     57 S57       -51.0422  -25.4806    8.1094 S.3       14 UNK        -0.2604 
     58 C58       -52.7051  -24.9969    7.5631 C.3       14 UNK         0.0134 
     59 N         -50.0053  -24.8554   11.0342 N.am      6 UNK        -0.4116 
     60 C         -50.4065  -25.1971   12.2655 C.2       5 UNK         0.5034 
     61 O         -51.3815  -24.7000   12.8286 O.2       5 UNK        -0.5045 
     62 CA        -49.5788  -26.2600   13.0067 C.3       5 UNK         0.0224 
     63 CB        -50.2204  -27.6443   12.8612 C.3       5 UNK        -0.1978 
     64 N         -48.1830  -26.3365   12.5656 N.am      5 UNK        -0.4737 
     65 C         -47.2608  -25.3882   12.7774 C.2       4 UNK         0.5027 
     66 O         -47.4745  -24.3483   13.4002 O.2       4 UNK        -0.5211 
     67 CA        -45.8774  -25.6126   12.1471 C.3       4 UNK         0.0297 
     68 CB        -44.9823  -26.4165   13.1023 C.3       4 UNK        -0.1993 
     69 N         -45.9234  -26.2742   10.8394 N.am      4 UNK        -0.4486 
     70 C         -46.6151  -25.8456    9.7736 C.2       3 UNK         0.4961 
     71 O         -47.3196  -24.8351    9.7813 O.2       3 UNK        -0.5105 
     72 CA        -46.5243  -26.6851    8.4879 C.3       3 UNK         0.0299 
     73 CB        -45.3050  -27.6337    8.4390 C.3       3 UNK        -0.1972 
     74 N         -47.7601  -27.4259    8.2136 N.am      3 UNK        -0.4305 
     75 C         -48.3609  -28.3382    8.9982 C.2       2 UNK         0.5006 
     76 O         -47.9770  -28.6102   10.1374 O.2       2 UNK        -0.5106 
     77 CA        -49.5799  -29.0955    8.4267 C.3       2 UNK         0.0296 
     78 CB        -50.7453  -29.1623    9.4262 C.3       2 UNK        -0.2002 
     79 N         -50.0752  -28.5153    7.1800 N.am      2 UNK        -0.4032 
     80 C         -49.7225  -28.9077    5.9510 C.2       1 UNK         0.5000 
     81 O         -48.9754  -29.8596    5.7106 O.2       1 UNK        -0.5238 
     82 H82       -47.3524  -26.7132    2.4047 H         1 UNK         0.0889 
     83 H83       -46.2078  -26.5496    3.7387 H         1 UNK         0.0889 
     84 H84       -47.2096  -25.1762    3.2608 H         1 UNK         0.0889 
     85 H85       -49.1875  -27.8604    3.0049 H         1 UNK         0.3028 
     86 H86       -50.7984  -27.2070    5.2274 H         1 UNK         0.0864 
     87 H87       -50.8164  -29.6349    3.3603 H         1 UNK         0.0720 
     88 H88       -52.0072  -29.4137    4.6124 H         1 UNK         0.0720 
     89 H89       -54.3566  -28.8567    3.3514 H         1 UNK         0.0814 
     90 H90       -54.5895  -27.1548    3.0422 H         1 UNK         0.0814 
     91 H91       -52.8618  -25.7590    4.9504 H         1 UNK         0.1469 
     92 H92       -54.1722  -26.8787    8.8774 H         1 UNK         0.1381 
     93 H93       -55.1945  -29.3164    5.5036 H         1 UNK         0.1206 
     94 H94       -56.2793  -29.7082    7.6082 H         1 UNK         0.0813 
     95 H95       -56.1876  -28.5043    8.8700 H         1 UNK         0.0813 
     96 H96       -55.4211  -32.0782   10.3776 H         1 UNK         0.0638 
     97 H97       -56.6724  -31.1619    9.5879 H         1 UNK         0.0638 
     98 H98       -56.3255  -29.2932   11.2527 H         1 UNK         0.0568 
     99 H99       -56.6359  -30.3319   14.1366 H         1 UNK         0.3450 
    100 H100      -58.2176  -31.0723   14.0588 H         1 UNK         0.3450 
    101 H101      -54.5686  -29.2192   12.5548 H         1 UNK         0.2987 
    102 H102      -53.2157  -31.4078   14.8904 H         1 UNK         0.0766 
    103 H103      -51.5712  -31.9038   13.0850 H         1 UNK         0.0798 
    104 H104      -50.9562  -30.6478   14.1462 H         1 UNK         0.0798 
    105 H105      -51.6071  -30.2283   12.5596 H         1 UNK         0.0798 
    106 H106      -52.4630  -28.7702   14.5478 H         1 UNK         0.3198 
    107 H107      -53.8839  -26.8367   14.7068 H         1 UNK         0.0843 
    108 H108      -56.3612  -26.9446   15.0086 H         1 UNK         0.0831 
    109 H109      -55.6391  -25.7029   16.0163 H         1 UNK         0.0831 
    110 H110      -56.1504  -27.2337   16.7291 H         1 UNK         0.0831 
    111 H111      -53.8894  -26.7860   17.5567 H         1 UNK         0.3133 
    112 H112      -52.0082  -25.9772   18.5017 H         1 UNK         0.0566 
    113 H113      -50.8027  -27.6230   19.9340 H         1 UNK         0.0814 
    114 H114      -52.2134  -28.3761   19.2119 H         1 UNK         0.0814 
    115 H115      -50.6170  -28.7158   18.5608 H         1 UNK         0.0814 
    116 H116      -49.2872  -26.6393   18.1900 H         1 UNK         0.3091 
    117 H117      -47.9911  -24.3796   17.8762 H         1 UNK         0.0702 
    118 H118      -46.4391  -25.5370   16.2108 H         1 UNK         0.0785 
    119 H119      -47.8509  -26.3365   15.5262 H         1 UNK         0.0785 
    120 H120      -47.3917  -26.6290   17.1920 H         1 UNK         0.0785 
    121 H121      -47.8604  -23.7862   15.0234 H         1 UNK         0.2998 
    122 H122      -48.9157  -20.4606   15.3657 H         1 UNK         0.0697 
    123 H123      -45.9075  -21.0549   15.5109 H         1 UNK         0.0825 
    124 H124      -46.7962  -20.1029   16.6922 H         1 UNK         0.0825 
    125 H125      -46.6422  -19.5209   15.0480 H         1 UNK         0.0825 
    126 H126      -47.7863  -22.5718   13.6800 H         1 UNK         0.3029 
    127 H127      -48.0574  -20.4779   10.7205 H         1 UNK         0.0897 
    128 H128      -46.0927  -21.9408   10.2810 H         1 UNK         0.0792 
    129 H129      -45.7273  -20.7271   11.4975 H         1 UNK         0.0792 
    130 H130      -46.0253  -22.3863   11.9848 H         1 UNK         0.0792 
    131 H131      -48.1268  -23.3073   10.8820 H         1 UNK         0.3086 
    132 H132      -51.6395  -23.6869   10.4730 H         1 UNK         0.0583 
    133 H133      -50.8808  -23.0760    8.2132 H         1 UNK         0.1020 
    134 H134      -49.3402  -23.8444    8.4591 H         1 UNK         0.1020 
    135 H135      -53.2640  -24.5922    8.4084 H         1 UNK         0.0694 
    136 H136      -52.6312  -24.1981    6.8235 H         1 UNK         0.0694 
    137 H137      -49.1767  -25.2871   10.6443 H         1 UNK         0.2989 
    138 H138      -49.6000  -25.9850   14.0626 H         1 UNK         0.1055 
    139 H139      -51.2909  -27.6074   13.0647 H         1 UNK         0.0806 
    140 H140      -49.7789  -28.3567   13.5581 H         1 UNK         0.0806 
    141 H141      -50.0907  -28.0353   11.8562 H         1 UNK         0.0806 
    142 H142      -47.9230  -27.1429   12.0096 H         1 UNK         0.3061 
    143 H143      -45.4198  -24.6339   11.9972 H         1 UNK         0.0734 
    144 H144      -44.9122  -25.9268   14.0748 H         1 UNK         0.0832 
    145 H145      -45.3704  -27.4218   13.2715 H         1 UNK         0.0832 
    146 H146      -43.9673  -26.5075   12.7152 H         1 UNK         0.0832 
    147 H147      -45.4027  -27.1343   10.7461 H         1 UNK         0.3156 
    148 H148      -46.4118  -25.9695    7.6722 H         1 UNK         0.0589 
    149 H149      -45.3691  -28.4357    9.1751 H         1 UNK         0.0808 
    150 H150      -45.2183  -28.1002    7.4575 H         1 UNK         0.0808 
    151 H151      -44.3748  -27.0912    8.6148 H         1 UNK         0.0808 
    152 H152      -48.1757  -27.2120    7.3117 H         1 UNK         0.3098 
    153 H153      -49.2491  -30.1195    8.2422 H         1 UNK         0.0720 
    154 H154      -50.4548  -29.6998   10.3289 H         1 UNK         0.0791 
    155 H155      -51.5932  -29.6977    9.0006 H         1 UNK         0.0791 
    156 H156      -51.0911  -28.1694    9.7158 H         1 UNK         0.0791 
    157 H157      -50.6640  -27.6972    7.2821 H         1 UNK         0.3028 
@<TRIPOS>BOND
     1    1    2 1    
     2    1   82 1    
     3    1   83 1    
     4    1   84 1    
     5    2    3 2    
     6    2    4 am   BACKBONE|DICT|INTERRES
     7    4    5 1    
     8    4   85 1    
     9    5    6 1    
    10    5   80 1    
    11    5   86 1    
    12    6    7 1    
    13    6   87 1    
    14    6   88 1    
    15    7    8 1    
    16    8    9 1    
    17    8   89 1    
    18    8   90 1    
    19    9   10 ar   
    20    9   14 ar   
    21   10   11 ar   
    22   10   91 1    
    23   11   12 ar   
    24   11   58 1    
    25   12   13 ar   
    26   12   92 1    
    27   13   14 ar   
    28   13   15 1    
    29   14   93 1    
    30   15   16 1    
    31   15   94 1    
    32   15   95 1    
    33   16   17 1    
    34   17   18 1    
    35   17   96 1    
    36   17   97 1    
    37   18   19 1    
    38   18   22 1    
    39   18   98 1    
    40   19   20 am   BACKBONE|DICT|INTERRES
    41   19   21 2    
    42   20   99 1    
    43   20  100 1    
    44   22   23 am   BACKBONE|DICT|INTERRES
    45   22  101 1    
    46   23   24 2    
    47   23   25 1    
    48   25   26 1    
    49   25   27 1    
    50   25  102 1    
    51   26  103 1    
    52   26  104 1    
    53   26  105 1    
    54   27   28 am   BACKBONE|DICT|INTERRES
    55   27  106 1    
    56   28   29 2    
    57   28   30 1    
    58   30   31 1    
    59   30   32 1    
    60   30  107 1    
    61   31  108 1    
    62   31  109 1    
    63   31  110 1    
    64   32   33 am   BACKBONE|DICT|INTERRES
    65   32  111 1    
    66   33   34 2    
    67   33   35 1    
    68   35   36 1    
    69   35   37 1    
    70   35  112 1    
    71   36  113 1    
    72   36  114 1    
    73   36  115 1    
    74   37   38 am   BACKBONE|DICT|INTERRES
    75   37  116 1    
    76   38   39 2    
    77   38   40 1    
    78   40   41 1    
    79   40   42 1    
    80   40  117 1    
    81   41  118 1    
    82   41  119 1    
    83   41  120 1    
    84   42   43 am   BACKBONE|DICT|INTERRES
    85   42  121 1    
    86   43   44 2    
    87   43   45 1    
    88   45   46 1    
    89   45   47 1    
    90   45  122 1    
    91   46  123 1    
    92   46  124 1    
    93   46  125 1    
    94   47   48 am   BACKBONE|DICT|INTERRES
    95   47  126 1    
    96   48   49 2    
    97   48   50 1    
    98   50   51 1    
    99   50   52 1    
   100   50  127 1    
   101   51  128 1    
   102   51  129 1    
   103   51  130 1    
   104   52   53 am   BACKBONE|DICT|INTERRES
   105   52  131 1    
   106   53   54 2    
   107   53   55 1    
   108   55   56 1    
   109   55   59 1    
   110   55  132 1    
   111   56   57 1    
   112   56  133 1    
   113   56  134 1    
   114   57   58 1    
   115   58  135 1    
   116   58  136 1    
   117   59   60 am   BACKBONE|DICT|INTERRES
   118   59  137 1    
   119   60   61 2    
   120   60   62 1    
   121   62   63 1    
   122   62   64 1    
   123   62  138 1    
   124   63  139 1    
   125   63  140 1    
   126   63  141 1    
   127   64   65 am   BACKBONE|DICT|INTERRES
   128   64  142 1    
   129   65   66 2    
   130   65   67 1    
   131   67   68 1    
   132   67   69 1    
   133   67  143 1    
   134   68  144 1    
   135   68  145 1    
   136   68  146 1    
   137   69   70 am   BACKBONE|DICT|INTERRES
   138   69  147 1    
   139   70   71 2    
   140   70   72 1    
   141   72   73 1    
   142   72   74 1    
   143   72  148 1    
   144   73  149 1    
   145   73  150 1    
   146   73  151 1    
   147   74   75 am   BACKBONE|DICT|INTERRES
   148   74  152 1    
   149   75   76 2    
   150   75   77 1    
   151   77   78 1    
   152   77   79 1    
   153   77  153 1    
   154   78  154 1    
   155   78  155 1    
   156   78  156 1    
   157   79   80 am   BACKBONE|DICT|INTERRES
   158   79  157 1    
   159   80   81 2    
@<TRIPOS>SUBSTRUCTURE
     1 UNK         1 GROUP             0       ****    0 ROOT    
