@<TRIPOS>MOLECULE
3R207
157   159    1
SMALL
USER_CHARGES


@<TRIPOS>ATOM
      1 CA        -43.2629  -26.2292   10.2916 C.3       0 UNK        -0.1975 
      2 C         -44.3423  -26.7019    9.3277 C.2       0 UNK         0.4852 
      3 O         -44.2582  -26.4277    8.1294 O.2       0 UNK        -0.5216 
      4 N         -45.3478  -27.4237    9.8423 N.am      1 UNK        -0.4461 
      5 CA        -46.4456  -28.0061    9.0628 C.3       1 UNK         0.0864 
      6 C6        -47.1541  -29.1591    9.8465 C.3       14 UNK        -0.0898 
      7 S7        -48.8444  -28.8700   10.4935 S.3       14 UNK        -0.2598 
      8 C8        -49.8084  -29.8869    9.3233 C.3       14 UNK         0.0286 
      9 C9        -51.3033  -29.6618    9.4767 C.ar      14 UNK        -0.0844 
     10 C10       -51.8535  -28.4211    9.1483 C.ar      14 UNK        -0.0881 
     11 C11       -53.2200  -28.1713    9.3247 C.ar      14 UNK        -0.0643 
     12 C12       -54.0400  -29.2074    9.7826 C.ar      14 UNK        -0.0930 
     13 C13       -53.5088  -30.4634   10.0903 C.ar      14 UNK        -0.0827 
     14 C14       -52.1368  -30.6845    9.9382 C.ar      14 UNK        -0.1249 
     15 C15       -54.4136  -31.5750   10.6010 C.3       14 UNK         0.0141 
     16 S16       -54.6224  -31.4586   12.4051 S.3       14 UNK        -0.2313 
     17 C17       -56.4361  -31.3579   12.5846 C.3       14 UNK        -0.0915 
     18 CA        -57.0668  -30.0146   12.1225 C.3       13 UNK         0.0968 
     19 C         -58.5969  -30.0012   12.4156 C.2       13 UNK         0.5732 
     20 N         -59.1058  -29.1501   13.3009 N.am      13 UNK        -0.7310 
     21 O         -59.3383  -30.7803   11.8215 O.2       13 UNK        -0.5035 
     22 N         -56.3416  -28.8471   12.6430 N.am      13 UNK        -0.4233 
     23 C         -56.4566  -27.6005   12.1667 C.2       13 UNK         0.4989 
     24 O         -57.0953  -27.3175   11.1518 O.2       13 UNK        -0.4996 
     25 CA        -55.7365  -26.4856   12.9525 C.3       12 UNK         0.0216 
     26 CB        -56.4292  -25.1152   12.8030 C.3       12 UNK        -0.1964 
     27 N         -55.5155  -26.7994   14.3724 N.am      12 UNK        -0.4276 
     28 C         -56.4393  -27.1030   15.3004 C.2       12 UNK         0.5020 
     29 O         -57.6461  -27.1629   15.0578 O.2       12 UNK        -0.5489 
     30 CA        -55.9533  -27.4657   16.7197 C.3       11 UNK         0.0294 
     31 CB        -56.3518  -28.9113   17.0666 C.3       11 UNK        -0.2019 
     32 N         -54.5054  -27.3271   16.8996 N.am      11 UNK        -0.4493 
     33 C         -53.8631  -26.1789   17.1561 C.2       11 UNK         0.4932 
     34 O         -54.4331  -25.1073   17.3609 O.2       11 UNK        -0.5029 
     35 CA        -52.3204  -26.2274   17.1510 C.3       10 UNK         0.0280 
     36 CB        -51.7838  -26.3982   18.5811 C.3       10 UNK        -0.1976 
     37 N         -51.7455  -27.2717   16.2902 N.am      10 UNK        -0.4242 
     38 C         -51.9649  -27.3948   14.9741 C.2       10 UNK         0.5072 
     39 O         -52.6885  -26.6341   14.3315 O.2       10 UNK        -0.5224 
     40 CA        -51.2957  -28.5853   14.2734 C.3       9 UNK         0.0343 
     41 CB        -51.9683  -28.9183   12.9338 C.3       9 UNK        -0.2003 
     42 N         -49.8827  -28.3215   14.0300 N.am      9 UNK        -0.4272 
     43 C         -48.9054  -28.4556   14.9340 C.2       9 UNK         0.4988 
     44 O         -49.0904  -28.8312   16.0927 O.2       9 UNK        -0.5108 
     45 CA        -47.4855  -28.1085   14.4618 C.3       8 UNK         0.0248 
     46 CB        -46.8238  -29.3251   13.7948 C.3       8 UNK        -0.2001 
     47 N         -47.4790  -26.9654   13.5422 N.am      8 UNK        -0.4140 
     48 C         -47.5398  -25.6912   13.9544 C.2       8 UNK         0.5028 
     49 O         -47.5802  -25.3548   15.1387 O.2       8 UNK        -0.5428 
     50 CA        -47.5388  -24.6027   12.8703 C.3       7 UNK         0.0264 
     51 CB        -46.1042  -24.2813   12.4279 C.3       7 UNK        -0.1988 
     52 N         -48.3625  -24.9146   11.6985 N.am      7 UNK        -0.4454 
     53 C         -49.7023  -24.9772   11.7162 C.2       7 UNK         0.5027 
     54 O         -50.3754  -24.8898   12.7428 O.2       7 UNK        -0.5083 
     55 CA        -50.3887  -25.1085   10.3422 C.3       6 UNK         0.0844 
     56 C56       -51.9399  -25.2184   10.4272 C.3       14 UNK        -0.0967 
     57 S57       -52.7108  -25.4143    8.7788 S.3       14 UNK        -0.2604 
     58 C58       -53.8605  -26.8122    9.0345 C.3       14 UNK         0.0134 
     59 N         -49.9200  -24.0478    9.4401 N.am      6 UNK        -0.4116 
     60 C         -50.1880  -22.7372    9.5326 C.2       5 UNK         0.5034 
     61 O         -50.8487  -22.2248   10.4379 O.2       5 UNK        -0.5045 
     62 CA        -49.6373  -21.8606    8.3924 C.3       5 UNK         0.0224 
     63 CB        -49.8111  -20.3466    8.6444 C.3       5 UNK        -0.1978 
     64 N         -48.2497  -22.1843    8.0401 N.am      5 UNK        -0.4737 
     65 C         -47.1568  -22.0420    8.8060 C.2       4 UNK         0.5027 
     66 O         -47.1833  -21.6096    9.9582 O.2       4 UNK        -0.5211 
     67 CA        -45.8070  -22.4448    8.1790 C.3       4 UNK         0.0297 
     68 CB        -44.8161  -22.9786    9.2241 C.3       4 UNK        -0.1993 
     69 N         -45.9763  -23.4596    7.1387 N.am      4 UNK        -0.4486 
     70 C         -45.9882  -23.2247    5.8202 C.2       3 UNK         0.4961 
     71 O         -45.7926  -22.1184    5.3172 O.2       3 UNK        -0.5105 
     72 CA        -46.3075  -24.4199    4.9031 C.3       3 UNK         0.0299 
     73 CB        -45.0077  -25.0701    4.4031 C.3       3 UNK        -0.1972 
     74 N         -47.1447  -25.4436    5.5372 N.am      3 UNK        -0.4305 
     75 C         -48.3976  -25.2585    5.9809 C.2       2 UNK         0.5006 
     76 O         -49.0088  -24.1944    5.8880 O.2       2 UNK        -0.5106 
     77 CA        -49.0627  -26.4433    6.7011 C.3       2 UNK         0.0296 
     78 CB        -49.8786  -27.2927    5.7146 C.3       2 UNK        -0.2002 
     79 N         -48.1067  -27.2984    7.4109 N.am      2 UNK        -0.4032 
     80 C         -47.3827  -26.9241    8.4762 C.2       1 UNK         0.5000 
     81 O         -47.4496  -25.8013    8.9917 O.2       1 UNK        -0.5238 
     82 H82       -43.4981  -26.4824   11.3251 H         1 UNK         0.0889 
     83 H83       -43.1386  -25.1495   10.2283 H         1 UNK         0.0889 
     84 H84       -42.3103  -26.6935   10.0383 H         1 UNK         0.0889 
     85 H85       -45.3644  -27.6087   10.8334 H         1 UNK         0.3028 
     86 H86       -45.9633  -28.4724    8.2000 H         1 UNK         0.0864 
     87 H87       -47.1952  -30.0362    9.1988 H         1 UNK         0.0720 
     88 H88       -46.5370  -29.4887   10.6833 H         1 UNK         0.0720 
     89 H89       -49.5587  -30.9380    9.4766 H         1 UNK         0.0814 
     90 H90       -49.5219  -29.6472    8.2992 H         1 UNK         0.0814 
     91 H91       -51.1983  -27.6513    8.7719 H         1 UNK         0.1469 
     92 H92       -55.0989  -29.0317    9.9071 H         1 UNK         0.1381 
     93 H93       -51.7182  -31.6489   10.1914 H         1 UNK         0.1206 
     94 H94       -53.9895  -32.5501   10.3572 H         1 UNK         0.0813 
     95 H95       -55.3785  -31.5317   10.0948 H         1 UNK         0.0813 
     96 H96       -56.6601  -31.5309   13.6390 H         1 UNK         0.0638 
     97 H97       -56.8803  -32.1947   12.0423 H         1 UNK         0.0638 
     98 H98       -56.9829  -29.9771   11.0357 H         1 UNK         0.0568 
     99 H99       -60.0984  -29.1580   13.4713 H         1 UNK         0.3450 
    100 H100      -58.5162  -28.4951   13.8039 H         1 UNK         0.3450 
    101 H101      -55.7889  -29.0022   13.4712 H         1 UNK         0.2987 
    102 H102      -54.7448  -26.4027   12.5051 H         1 UNK         0.0766 
    103 H103      -56.4710  -24.8072   11.7575 H         1 UNK         0.0798 
    104 H104      -55.8899  -24.3386   13.3454 H         1 UNK         0.0798 
    105 H105      -57.4531  -25.1379   13.1779 H         1 UNK         0.0798 
    106 H106      -54.5360  -26.7714   14.6492 H         1 UNK         0.3198 
    107 H107      -56.4625  -26.7947   17.4150 H         1 UNK         0.0843 
    108 H108      -55.8895  -29.6333   16.3921 H         1 UNK         0.0831 
    109 H109      -57.4320  -29.0481   16.9970 H         1 UNK         0.0831 
    110 H110      -56.0628  -29.1693   18.0856 H         1 UNK         0.0831 
    111 H111      -53.9499  -28.1595   16.7658 H         1 UNK         0.3133 
    112 H112      -51.9695  -25.2670   16.7679 H         1 UNK         0.0566 
    113 H113      -50.6958  -26.3320   18.6079 H         1 UNK         0.0814 
    114 H114      -52.0735  -27.3585   19.0095 H         1 UNK         0.0814 
    115 H115      -52.1697  -25.6181   19.2390 H         1 UNK         0.0814 
    116 H116      -51.0927  -27.9159   16.7204 H         1 UNK         0.3091 
    117 H117      -51.3974  -29.4588   14.9212 H         1 UNK         0.0702 
    118 H118      -51.5782  -29.8502   12.5267 H         1 UNK         0.0785 
    119 H119      -51.8097  -28.1366   12.1910 H         1 UNK         0.0785 
    120 H120      -53.0451  -29.0404   13.0499 H         1 UNK         0.0785 
    121 H121      -49.6449  -27.9834   13.1098 H         1 UNK         0.2998 
    122 H122      -46.8939  -27.8533   15.3440 H         1 UNK         0.0697 
    123 H123      -45.8207  -29.0906   13.4386 H         1 UNK         0.0825 
    124 H124      -47.4063  -29.6963   12.9522 H         1 UNK         0.0825 
    125 H125      -46.7295  -30.1481   14.5045 H         1 UNK         0.0825 
    126 H126      -47.4664  -27.1585   12.5518 H         1 UNK         0.3029 
    127 H127      -47.9522  -23.7008   13.3279 H         1 UNK         0.0897 
    128 H128      -45.6703  -25.0886   11.8389 H         1 UNK         0.0792 
    129 H129      -45.4536  -24.1152   13.2879 H         1 UNK         0.0792 
    130 H130      -46.0802  -23.3696   11.8322 H         1 UNK         0.0792 
    131 H131      -47.8899  -25.0145   10.8045 H         1 UNK         0.3086 
    132 H132      -50.0214  -26.0447    9.9240 H         1 UNK         0.0583 
    133 H133      -52.2215  -26.0601   11.0620 H         1 UNK         0.1020 
    134 H134      -52.3684  -24.3359   10.9049 H         1 UNK         0.1020 
    135 H135      -54.5390  -26.5496    9.8474 H         1 UNK         0.0694 
    136 H136      -54.4768  -26.9105    8.1400 H         1 UNK         0.0694 
    137 H137      -49.2992  -24.3490    8.7028 H         1 UNK         0.2989 
    138 H138      -50.2363  -22.1115    7.5150 H         1 UNK         0.1055 
    139 H139      -49.2918  -20.0212    9.5463 H         1 UNK         0.0806 
    140 H140      -50.8642  -20.0910    8.7687 H         1 UNK         0.0806 
    141 H141      -49.4331  -19.7587    7.8081 H         1 UNK         0.0806 
    142 H142      -48.1281  -22.5898    7.1190 H         1 UNK         0.3061 
    143 H143      -45.3787  -21.5361    7.7512 H         1 UNK         0.0734 
    144 H144      -45.2023  -23.8777    9.7013 H         1 UNK         0.0832 
    145 H145      -43.8574  -23.2250    8.7676 H         1 UNK         0.0832 
    146 H146      -44.6225  -22.2423   10.0050 H         1 UNK         0.0832 
    147 H147      -46.1611  -24.4002    7.4646 H         1 UNK         0.3156 
    148 H148      -46.8535  -24.0344    4.0396 H         1 UNK         0.0589 
    149 H149      -44.4292  -25.4976    5.2238 H         1 UNK         0.0808 
    150 H150      -44.3718  -24.3376    3.9038 H         1 UNK         0.0808 
    151 H151      -45.2100  -25.8637    3.6836 H         1 UNK         0.0808 
    152 H152      -46.7226  -26.3517    5.6653 H         1 UNK         0.3098 
    153 H153      -49.7570  -26.0330    7.4352 H         1 UNK         0.0720 
    154 H154      -50.4254  -28.0837    6.2285 H         1 UNK         0.0791 
    155 H155      -49.2457  -27.7569    4.9572 H         1 UNK         0.0791 
    156 H156      -50.6163  -26.6809    5.1931 H         1 UNK         0.0791 
    157 H157      -47.9936  -28.2358    7.0527 H         1 UNK         0.3028 
@<TRIPOS>BOND
     1    1    2 1    
     2    1   82 1    
     3    1   83 1    
     4    1   84 1    
     5    2    3 2    
     6    2    4 am   BACKBONE|DICT|INTERRES
     7    4    5 1    
     8    4   85 1    
     9    5    6 1    
    10    5   80 1    
    11    5   86 1    
    12    6    7 1    
    13    6   87 1    
    14    6   88 1    
    15    7    8 1    
    16    8    9 1    
    17    8   89 1    
    18    8   90 1    
    19    9   10 ar   
    20    9   14 ar   
    21   10   11 ar   
    22   10   91 1    
    23   11   12 ar   
    24   11   58 1    
    25   12   13 ar   
    26   12   92 1    
    27   13   14 ar   
    28   13   15 1    
    29   14   93 1    
    30   15   16 1    
    31   15   94 1    
    32   15   95 1    
    33   16   17 1    
    34   17   18 1    
    35   17   96 1    
    36   17   97 1    
    37   18   19 1    
    38   18   22 1    
    39   18   98 1    
    40   19   20 am   BACKBONE|DICT|INTERRES
    41   19   21 2    
    42   20   99 1    
    43   20  100 1    
    44   22   23 am   BACKBONE|DICT|INTERRES
    45   22  101 1    
    46   23   24 2    
    47   23   25 1    
    48   25   26 1    
    49   25   27 1    
    50   25  102 1    
    51   26  103 1    
    52   26  104 1    
    53   26  105 1    
    54   27   28 am   BACKBONE|DICT|INTERRES
    55   27  106 1    
    56   28   29 2    
    57   28   30 1    
    58   30   31 1    
    59   30   32 1    
    60   30  107 1    
    61   31  108 1    
    62   31  109 1    
    63   31  110 1    
    64   32   33 am   BACKBONE|DICT|INTERRES
    65   32  111 1    
    66   33   34 2    
    67   33   35 1    
    68   35   36 1    
    69   35   37 1    
    70   35  112 1    
    71   36  113 1    
    72   36  114 1    
    73   36  115 1    
    74   37   38 am   BACKBONE|DICT|INTERRES
    75   37  116 1    
    76   38   39 2    
    77   38   40 1    
    78   40   41 1    
    79   40   42 1    
    80   40  117 1    
    81   41  118 1    
    82   41  119 1    
    83   41  120 1    
    84   42   43 am   BACKBONE|DICT|INTERRES
    85   42  121 1    
    86   43   44 2    
    87   43   45 1    
    88   45   46 1    
    89   45   47 1    
    90   45  122 1    
    91   46  123 1    
    92   46  124 1    
    93   46  125 1    
    94   47   48 am   BACKBONE|DICT|INTERRES
    95   47  126 1    
    96   48   49 2    
    97   48   50 1    
    98   50   51 1    
    99   50   52 1    
   100   50  127 1    
   101   51  128 1    
   102   51  129 1    
   103   51  130 1    
   104   52   53 am   BACKBONE|DICT|INTERRES
   105   52  131 1    
   106   53   54 2    
   107   53   55 1    
   108   55   56 1    
   109   55   59 1    
   110   55  132 1    
   111   56   57 1    
   112   56  133 1    
   113   56  134 1    
   114   57   58 1    
   115   58  135 1    
   116   58  136 1    
   117   59   60 am   BACKBONE|DICT|INTERRES
   118   59  137 1    
   119   60   61 2    
   120   60   62 1    
   121   62   63 1    
   122   62   64 1    
   123   62  138 1    
   124   63  139 1    
   125   63  140 1    
   126   63  141 1    
   127   64   65 am   BACKBONE|DICT|INTERRES
   128   64  142 1    
   129   65   66 2    
   130   65   67 1    
   131   67   68 1    
   132   67   69 1    
   133   67  143 1    
   134   68  144 1    
   135   68  145 1    
   136   68  146 1    
   137   69   70 am   BACKBONE|DICT|INTERRES
   138   69  147 1    
   139   70   71 2    
   140   70   72 1    
   141   72   73 1    
   142   72   74 1    
   143   72  148 1    
   144   73  149 1    
   145   73  150 1    
   146   73  151 1    
   147   74   75 am   BACKBONE|DICT|INTERRES
   148   74  152 1    
   149   75   76 2    
   150   75   77 1    
   151   77   78 1    
   152   77   79 1    
   153   77  153 1    
   154   78  154 1    
   155   78  155 1    
   156   78  156 1    
   157   79   80 am   BACKBONE|DICT|INTERRES
   158   79  157 1    
   159   80   81 2    
@<TRIPOS>SUBSTRUCTURE
     1 UNK         1 GROUP             0       ****    0 ROOT    
