@<TRIPOS>MOLECULE
3R207
157   159    1
SMALL
USER_CHARGES


@<TRIPOS>ATOM
      1 CA        -45.6388  -26.1952   11.5809 C.3       0 UNK        -0.1975 
      2 C         -46.3088  -26.6496   10.2948 C.2       0 UNK         0.4852 
      3 O         -47.2611  -26.0145    9.8403 O.2       0 UNK        -0.5216 
      4 N         -45.7921  -27.7334    9.7009 N.am      1 UNK        -0.4461 
      5 CA        -46.2065  -28.3719    8.4398 C.3       1 UNK         0.0864 
      6 C6        -47.7177  -28.7062    8.3383 C.3       14 UNK        -0.0898 
      7 S7        -48.2560  -29.8006    9.6965 S.3       14 UNK        -0.2598 
      8 C8        -49.2574  -31.0435    8.8200 C.3       14 UNK         0.0286 
      9 C9        -50.7189  -30.6271    8.7613 C.ar      14 UNK        -0.0844 
     10 C10       -51.1561  -29.6955    7.8141 C.ar      14 UNK        -0.0881 
     11 C11       -52.4940  -29.2902    7.7881 C.ar      14 UNK        -0.0643 
     12 C12       -53.4017  -29.8533    8.6897 C.ar      14 UNK        -0.0930 
     13 C13       -52.9748  -30.7734    9.6497 C.ar      14 UNK        -0.0827 
     14 C14       -51.6336  -31.1630    9.6737 C.ar      14 UNK        -0.1249 
     15 C15       -53.9568  -31.3349   10.6690 C.3       14 UNK         0.0141 
     16 S16       -54.1855  -30.2049   12.0817 S.3       14 UNK        -0.2313 
     17 C17       -55.2647  -28.9301   11.3400 C.3       14 UNK        -0.0915 
     18 CA        -56.0473  -28.0698   12.3676 C.3       13 UNK         0.0968 
     19 C         -57.1326  -28.8450   13.1673 C.2       13 UNK         0.5732 
     20 N         -57.3933  -28.4983   14.4227 N.am      13 UNK        -0.7310 
     21 O         -57.7691  -29.7550   12.6412 O.2       13 UNK        -0.5035 
     22 N         -55.1437  -27.2811   13.2167 N.am      13 UNK        -0.4233 
     23 C         -54.7118  -26.0454   12.9427 C.2       13 UNK         0.4989 
     24 O         -55.0464  -25.4070   11.9423 O.2       13 UNK        -0.4996 
     25 CA        -53.7496  -25.4226   13.9744 C.3       12 UNK         0.0216 
     26 CB        -53.4896  -23.9211   13.7342 C.3       12 UNK        -0.1964 
     27 N         -54.1392  -25.6653   15.3707 N.am      12 UNK        -0.4276 
     28 C         -55.2986  -25.3381   15.9667 C.2       12 UNK         0.5020 
     29 O         -56.2354  -24.7884   15.3870 O.2       12 UNK        -0.5489 
     30 CA        -55.4721  -25.7037   17.4561 C.3       11 UNK         0.0294 
     31 CB        -56.4621  -26.8706   17.6124 C.3       11 UNK        -0.2019 
     32 N         -54.2214  -26.0561   18.1314 N.am      11 UNK        -0.4493 
     33 C         -53.2608  -25.1881   18.4777 C.2       11 UNK         0.4932 
     34 O         -53.3634  -23.9680   18.3503 O.2       11 UNK        -0.5029 
     35 CA        -51.9512  -25.7807   19.0364 C.3       10 UNK         0.0280 
     36 CB        -51.9402  -25.6972   20.5714 C.3       10 UNK        -0.1976 
     37 N         -51.6709  -27.1651   18.6252 N.am      10 UNK        -0.4242 
     38 C         -51.5459  -27.5884   17.3599 C.2       10 UNK         0.5072 
     39 O         -51.7183  -26.8661   16.3721 O.2       10 UNK        -0.5224 
     40 CA        -51.2249  -29.0739   17.1590 C.3       9 UNK         0.0343 
     41 CB        -52.4693  -29.9497   17.3885 C.3       9 UNK        -0.2003 
     42 N         -50.7686  -29.2288   15.7859 N.am      9 UNK        -0.4272 
     43 C         -49.8450  -30.0801   15.3315 C.2       9 UNK         0.4988 
     44 O         -49.3193  -30.9576   16.0173 O.2       9 UNK        -0.5108 
     45 CA        -49.4305  -29.9137   13.8574 C.3       8 UNK         0.0248 
     46 CB        -50.1675  -30.9344   12.9787 C.3       8 UNK        -0.2001 
     47 N         -49.6841  -28.5612   13.3461 N.am      8 UNK        -0.4140 
     48 C         -48.9818  -27.4726   13.6885 C.2       8 UNK         0.5028 
     49 O         -47.9610  -27.5092   14.3776 O.2       8 UNK        -0.5428 
     50 CA        -49.5284  -26.1236   13.1888 C.3       7 UNK         0.0264 
     51 CB        -48.6570  -24.9190   13.5882 C.3       7 UNK        -0.1988 
     52 N         -49.7266  -26.1133   11.7396 N.am      7 UNK        -0.4454 
     53 C         -50.8207  -26.5626   11.1090 C.2       7 UNK         0.5027 
     54 O         -51.7359  -27.1434   11.6943 O.2       7 UNK        -0.5083 
     55 CA        -50.8825  -26.3327    9.5818 C.3       6 UNK         0.0844 
     56 C56       -52.3165  -26.4164    8.9886 C.3       14 UNK        -0.0967 
     57 S57       -52.2426  -26.5677    7.1638 S.3       14 UNK        -0.2604 
     58 C58       -52.9638  -28.2121    6.8204 C.3       14 UNK         0.0134 
     59 N         -50.1817  -25.1061    9.1730 N.am      6 UNK        -0.4116 
     60 C         -50.4897  -23.8512    9.5389 C.2       5 UNK         0.5034 
     61 O         -51.3849  -23.5546   10.3304 O.2       5 UNK        -0.5045 
     62 CA        -49.6648  -22.7294    8.8914 C.3       5 UNK         0.0224 
     63 CB        -48.3384  -22.5196    9.6399 C.3       5 UNK        -0.1978 
     64 N         -49.4043  -22.9836    7.4718 N.am      5 UNK        -0.4737 
     65 C         -50.3417  -22.9057    6.5123 C.2       4 UNK         0.5027 
     66 O         -51.5082  -22.5783    6.7359 O.2       4 UNK        -0.5211 
     67 CA        -49.9167  -23.2499    5.0671 C.3       4 UNK         0.0297 
     68 CB        -50.7738  -22.5287    4.0046 C.3       4 UNK        -0.1993 
     69 N         -48.4853  -23.0478    4.8120 N.am      4 UNK        -0.4486 
     70 C         -47.7888  -21.9051    4.9177 C.2       3 UNK         0.4961 
     71 O         -48.3032  -20.8042    5.1206 O.2       3 UNK        -0.5105 
     72 CA        -46.2524  -22.0163    4.8001 C.3       3 UNK         0.0299 
     73 CB        -45.5314  -20.9780    5.6865 C.3       3 UNK        -0.1972 
     74 N         -45.7087  -23.3613    5.0571 N.am      3 UNK        -0.4305 
     75 C         -45.8453  -24.0968    6.1715 C.2       2 UNK         0.5006 
     76 O         -46.5314  -23.7674    7.1421 O.2       2 UNK        -0.5106 
     77 CA        -45.0936  -25.4305    6.1879 C.3       2 UNK         0.0296 
     78 CB        -43.5892  -25.2129    6.4336 C.3       2 UNK        -0.2002 
     79 N         -45.6359  -26.2885    7.2383 N.am      2 UNK        -0.4032 
     80 C         -45.7030  -27.6236    7.1881 C.2       1 UNK         0.5000 
     81 O         -45.3459  -28.2817    6.2087 O.2       1 UNK        -0.5238 
     82 H82       -46.1351  -26.6425   12.4410 H         1 UNK         0.0889 
     83 H83       -45.6906  -25.1106   11.6732 H         1 UNK         0.0889 
     84 H84       -44.5878  -26.4821   11.6066 H         1 UNK         0.0889 
     85 H85       -45.0015  -28.1812   10.1434 H         1 UNK         0.3028 
     86 H86       -45.6751  -29.3253    8.4304 H         1 UNK         0.0864 
     87 H87       -47.9239  -29.1931    7.3839 H         1 UNK         0.0720 
     88 H88       -48.3224  -27.8010    8.3430 H         1 UNK         0.0720 
     89 H89       -49.1623  -31.9937    9.3477 H         1 UNK         0.0814 
     90 H90       -48.8699  -31.2222    7.8163 H         1 UNK         0.0814 
     91 H91       -50.4521  -29.2595    7.1191 H         1 UNK         0.1469 
     92 H92       -54.4378  -29.5465    8.6681 H         1 UNK         0.1381 
     93 H93       -51.3003  -31.8782   10.4125 H         1 UNK         0.1206 
     94 H94       -53.5947  -32.2924   11.0464 H         1 UNK         0.0813 
     95 H95       -54.9181  -31.5421   10.1965 H         1 UNK         0.0813 
     96 H96       -55.9602  -29.4065   10.6473 H         1 UNK         0.0638 
     97 H97       -54.6387  -28.2755   10.7330 H         1 UNK         0.0638 
     98 H98       -56.6438  -27.3677   11.7827 H         1 UNK         0.0568 
     99 H99       -56.9502  -27.6946   14.8350 H         1 UNK         0.3450 
    100 H100      -58.1048  -29.0008   14.9295 H         1 UNK         0.3450 
    101 H101      -54.8127  -27.7459   14.0488 H         1 UNK         0.2987 
    102 H102      -52.8015  -25.9413   13.8397 H         1 UNK         0.0766 
    103 H103      -53.0812  -23.7511   12.7367 H         1 UNK         0.0798 
    104 H104      -52.7685  -23.5252   14.4493 H         1 UNK         0.0798 
    105 H105      -54.4051  -23.3347   13.8184 H         1 UNK         0.0798 
    106 H106      -53.4161  -26.1062   15.9347 H         1 UNK         0.3198 
    107 H107      -55.8948  -24.8282   17.9542 H         1 UNK         0.0843 
    108 H108      -56.0870  -27.7863   17.1539 H         1 UNK         0.0831 
    109 H109      -57.4198  -26.6374   17.1446 H         1 UNK         0.0831 
    110 H110      -56.6638  -27.0803   18.6630 H         1 UNK         0.0831 
    111 H111      -54.0537  -27.0376   18.2967 H         1 UNK         0.3133 
    112 H112      -51.1354  -25.1619   18.6569 H         1 UNK         0.0566 
    113 H113      -50.9784  -26.0072   20.9806 H         1 UNK         0.0814 
    114 H114      -52.7140  -26.3246   21.0158 H         1 UNK         0.0814 
    115 H115      -52.1171  -24.6747   20.9087 H         1 UNK         0.0814 
    116 H116      -51.5281  -27.8322   19.3706 H         1 UNK         0.3091 
    117 H117      -50.4290  -29.3583   17.8505 H         1 UNK         0.0702 
    118 H118      -52.2469  -31.0026   17.2133 H         1 UNK         0.0785 
    119 H119      -53.2888  -29.6688   16.7253 H         1 UNK         0.0785 
    120 H120      -52.8310  -29.8638   18.4137 H         1 UNK         0.0785 
    121 H121      -51.0978  -28.4963   15.1699 H         1 UNK         0.2998 
    122 H122      -48.3589  -30.1127   13.7898 H         1 UNK         0.0697 
    123 H123      -51.2427  -30.7525   12.9587 H         1 UNK         0.0825 
    124 H124      -50.0130  -31.9512   13.3422 H         1 UNK         0.0825 
    125 H125      -49.8008  -30.9005   11.9546 H         1 UNK         0.0825 
    126 H126      -50.5001  -28.4303   12.7565 H         1 UNK         0.3029 
    127 H127      -50.4934  -25.9855   13.6794 H         1 UNK         0.0897 
    128 H128      -47.6698  -24.9577   13.1320 H         1 UNK         0.0792 
    129 H129      -48.5172  -24.8791   14.6694 H         1 UNK         0.0792 
    130 H130      -49.1247  -23.9802   13.2904 H         1 UNK         0.0792 
    131 H131      -48.9697  -25.7468   11.1728 H         1 UNK         0.3086 
    132 H132      -50.3134  -27.1628    9.1661 H         1 UNK         0.0583 
    133 H133      -52.8706  -27.2541    9.4093 H         1 UNK         0.1020 
    134 H134      -52.8979  -25.5309    9.2500 H         1 UNK         0.1020 
    135 H135      -54.0509  -28.1221    6.8444 H         1 UNK         0.0694 
    136 H136      -52.7057  -28.5053    5.8020 H         1 UNK         0.0694 
    137 H137      -49.3909  -25.2363    8.5585 H         1 UNK         0.2989 
    138 H138      -50.2456  -21.8074    8.9702 H         1 UNK         0.1055 
    139 H139      -47.6994  -23.4014    9.5903 H         1 UNK         0.0806 
    140 H140      -48.5149  -22.3043   10.6946 H         1 UNK         0.0806 
    141 H141      -47.7787  -21.6812    9.2250 H         1 UNK         0.0806 
    142 H142      -48.4526  -23.2386    7.2213 H         1 UNK         0.3061 
    143 H143      -50.0940  -24.3209    4.9569 H         1 UNK         0.0734 
    144 H144      -50.7120  -21.4444    4.1020 H         1 UNK         0.0832 
    145 H145      -50.4618  -22.7940    2.9946 H         1 UNK         0.0832 
    146 H146      -51.8254  -22.8024    4.0989 H         1 UNK         0.0832 
    147 H147      -47.9540  -23.8889    4.6368 H         1 UNK         0.3156 
    148 H148      -46.0148  -21.7857    3.7606 H         1 UNK         0.0589 
    149 H149      -44.4488  -21.0502    5.5829 H         1 UNK         0.0808 
    150 H150      -45.8125  -19.9605    5.4116 H         1 UNK         0.0808 
    151 H151      -45.7770  -21.1094    6.7411 H         1 UNK         0.0808 
    152 H152      -45.1412  -23.7412    4.3110 H         1 UNK         0.3098 
    153 H153      -45.2384  -25.9056    5.2151 H         1 UNK         0.0720 
    154 H154      -43.1479  -24.5788    5.6637 H         1 UNK         0.0791 
    155 H155      -43.0454  -26.1577    6.4218 H         1 UNK         0.0791 
    156 H156      -43.4055  -24.7342    7.3966 H         1 UNK         0.0791 
    157 H157      -46.0376  -25.8041    8.0354 H         1 UNK         0.3028 
@<TRIPOS>BOND
     1    1    2 1    
     2    1   82 1    
     3    1   83 1    
     4    1   84 1    
     5    2    3 2    
     6    2    4 am   BACKBONE|DICT|INTERRES
     7    4    5 1    
     8    4   85 1    
     9    5    6 1    
    10    5   80 1    
    11    5   86 1    
    12    6    7 1    
    13    6   87 1    
    14    6   88 1    
    15    7    8 1    
    16    8    9 1    
    17    8   89 1    
    18    8   90 1    
    19    9   10 ar   
    20    9   14 ar   
    21   10   11 ar   
    22   10   91 1    
    23   11   12 ar   
    24   11   58 1    
    25   12   13 ar   
    26   12   92 1    
    27   13   14 ar   
    28   13   15 1    
    29   14   93 1    
    30   15   16 1    
    31   15   94 1    
    32   15   95 1    
    33   16   17 1    
    34   17   18 1    
    35   17   96 1    
    36   17   97 1    
    37   18   19 1    
    38   18   22 1    
    39   18   98 1    
    40   19   20 am   BACKBONE|DICT|INTERRES
    41   19   21 2    
    42   20   99 1    
    43   20  100 1    
    44   22   23 am   BACKBONE|DICT|INTERRES
    45   22  101 1    
    46   23   24 2    
    47   23   25 1    
    48   25   26 1    
    49   25   27 1    
    50   25  102 1    
    51   26  103 1    
    52   26  104 1    
    53   26  105 1    
    54   27   28 am   BACKBONE|DICT|INTERRES
    55   27  106 1    
    56   28   29 2    
    57   28   30 1    
    58   30   31 1    
    59   30   32 1    
    60   30  107 1    
    61   31  108 1    
    62   31  109 1    
    63   31  110 1    
    64   32   33 am   BACKBONE|DICT|INTERRES
    65   32  111 1    
    66   33   34 2    
    67   33   35 1    
    68   35   36 1    
    69   35   37 1    
    70   35  112 1    
    71   36  113 1    
    72   36  114 1    
    73   36  115 1    
    74   37   38 am   BACKBONE|DICT|INTERRES
    75   37  116 1    
    76   38   39 2    
    77   38   40 1    
    78   40   41 1    
    79   40   42 1    
    80   40  117 1    
    81   41  118 1    
    82   41  119 1    
    83   41  120 1    
    84   42   43 am   BACKBONE|DICT|INTERRES
    85   42  121 1    
    86   43   44 2    
    87   43   45 1    
    88   45   46 1    
    89   45   47 1    
    90   45  122 1    
    91   46  123 1    
    92   46  124 1    
    93   46  125 1    
    94   47   48 am   BACKBONE|DICT|INTERRES
    95   47  126 1    
    96   48   49 2    
    97   48   50 1    
    98   50   51 1    
    99   50   52 1    
   100   50  127 1    
   101   51  128 1    
   102   51  129 1    
   103   51  130 1    
   104   52   53 am   BACKBONE|DICT|INTERRES
   105   52  131 1    
   106   53   54 2    
   107   53   55 1    
   108   55   56 1    
   109   55   59 1    
   110   55  132 1    
   111   56   57 1    
   112   56  133 1    
   113   56  134 1    
   114   57   58 1    
   115   58  135 1    
   116   58  136 1    
   117   59   60 am   BACKBONE|DICT|INTERRES
   118   59  137 1    
   119   60   61 2    
   120   60   62 1    
   121   62   63 1    
   122   62   64 1    
   123   62  138 1    
   124   63  139 1    
   125   63  140 1    
   126   63  141 1    
   127   64   65 am   BACKBONE|DICT|INTERRES
   128   64  142 1    
   129   65   66 2    
   130   65   67 1    
   131   67   68 1    
   132   67   69 1    
   133   67  143 1    
   134   68  144 1    
   135   68  145 1    
   136   68  146 1    
   137   69   70 am   BACKBONE|DICT|INTERRES
   138   69  147 1    
   139   70   71 2    
   140   70   72 1    
   141   72   73 1    
   142   72   74 1    
   143   72  148 1    
   144   73  149 1    
   145   73  150 1    
   146   73  151 1    
   147   74   75 am   BACKBONE|DICT|INTERRES
   148   74  152 1    
   149   75   76 2    
   150   75   77 1    
   151   77   78 1    
   152   77   79 1    
   153   77  153 1    
   154   78  154 1    
   155   78  155 1    
   156   78  156 1    
   157   79   80 am   BACKBONE|DICT|INTERRES
   158   79  157 1    
   159   80   81 2    
@<TRIPOS>SUBSTRUCTURE
     1 UNK         1 GROUP             0       ****    0 ROOT    
