@<TRIPOS>MOLECULE
3R207
157   159    1
SMALL
USER_CHARGES


@<TRIPOS>ATOM
      1 CA        -51.8137  -26.2766    3.3658 C.3       0 UNK        -0.1975 
      2 C         -52.4376  -26.2311    4.7524 C.2       0 UNK         0.4852 
      3 O         -53.3143  -25.4026    5.0043 O.2       0 UNK        -0.5216 
      4 N         -51.9868  -27.1059    5.6607 N.am      1 UNK        -0.4461 
      5 CA        -52.4562  -27.2295    7.0471 C.3       1 UNK         0.0864 
      6 C6        -52.1329  -28.6296    7.6261 C.3       14 UNK        -0.0898 
      7 S7        -52.9815  -29.9817    6.7351 S.3       14 UNK        -0.2598 
      8 C8        -51.9068  -31.4153    7.0936 C.3       14 UNK         0.0286 
      9 C9        -51.5955  -31.5192    8.5791 C.ar      14 UNK        -0.0844 
     10 C10       -50.3254  -31.1872    9.0531 C.ar      14 UNK        -0.0881 
     11 C11       -50.0683  -31.1427   10.4263 C.ar      14 UNK        -0.0643 
     12 C12       -51.0975  -31.4483   11.3217 C.ar      14 UNK        -0.0930 
     13 C13       -52.3687  -31.8131   10.8644 C.ar      14 UNK        -0.0827 
     14 C14       -52.5968  -31.8769    9.4837 C.ar      14 UNK        -0.1249 
     15 C15       -53.4512  -32.0917   11.9101 C.3       14 UNK         0.0141 
     16 S16       -55.0525  -32.7428   11.3089 S.3       14 UNK        -0.2313 
     17 C17       -55.9452  -31.4274   10.3870 C.3       14 UNK        -0.0915 
     18 CA        -55.3653  -29.9797   10.2805 C.3       13 UNK         0.0968 
     19 C         -56.1845  -29.0960    9.2865 C.2       13 UNK         0.5732 
     20 N         -56.3652  -27.8015    9.5205 N.am      13 UNK        -0.7310 
     21 O         -56.6461  -29.5835    8.2575 O.2       13 UNK        -0.5035 
     22 N         -55.0922  -29.3357   11.5737 N.am      13 UNK        -0.4233 
     23 C         -55.9744  -29.0714   12.5456 C.2       13 UNK         0.4989 
     24 O         -57.1515  -29.4321   12.5386 O.2       13 UNK        -0.4996 
     25 CA        -55.4563  -28.2229   13.7232 C.3       12 UNK         0.0216 
     26 CB        -54.9438  -29.1283   14.8552 C.3       12 UNK        -0.1964 
     27 N         -54.4097  -27.2512   13.3737 N.am      12 UNK        -0.4276 
     28 C         -54.5096  -26.2939   12.4378 C.2       12 UNK         0.5020 
     29 O         -55.4822  -26.1683   11.6921 O.2       12 UNK        -0.5489 
     30 CA        -53.3207  -25.3217   12.3176 C.3       11 UNK         0.0294 
     31 CB        -53.6572  -24.0714   11.4778 C.3       11 UNK        -0.2019 
     32 N         -52.7615  -24.9389   13.6214 N.am      11 UNK        -0.4493 
     33 C         -53.4088  -24.3285   14.6283 C.2       11 UNK         0.4932 
     34 O         -54.5951  -24.0002   14.5757 O.2       11 UNK        -0.5029 
     35 CA        -52.6082  -23.9959   15.9016 C.3       10 UNK         0.0280 
     36 CB        -53.4562  -24.1285   17.1855 C.3       10 UNK        -0.1976 
     37 N         -51.3321  -24.7074   16.0335 N.am      10 UNK        -0.4242 
     38 C         -51.1230  -26.0115   16.2697 C.2       10 UNK         0.5072 
     39 O         -52.0322  -26.8411   16.3319 O.2       10 UNK        -0.5224 
     40 CA        -49.6592  -26.4720   16.4709 C.3       9 UNK         0.0343 
     41 CB        -49.4284  -27.9003   15.9434 C.3       9 UNK        -0.2003 
     42 N         -48.6793  -25.5730   15.8525 N.am      9 UNK        -0.4272 
     43 C         -48.2032  -24.4357   16.3800 C.2       9 UNK         0.4988 
     44 O         -48.4530  -24.0568   17.5238 O.2       9 UNK        -0.5108 
     45 CA        -47.3783  -23.5256   15.4469 C.3       8 UNK         0.0248 
     46 CB        -45.8769  -23.8290   15.5653 C.3       8 UNK        -0.2001 
     47 N         -47.8059  -23.6079   14.0429 N.am      8 UNK        -0.4140 
     48 C         -49.0252  -23.2499   13.6089 C.2       8 UNK         0.5028 
     49 O         -49.8798  -22.7331   14.3283 O.2       8 UNK        -0.5428 
     50 CA        -49.3761  -23.5692   12.1476 C.3       7 UNK         0.0264 
     51 CB        -48.8931  -22.4384   11.2266 C.3       7 UNK        -0.1988 
     52 N         -48.8460  -24.8684   11.7148 N.am      7 UNK        -0.4454 
     53 C         -49.2632  -26.0505   12.2002 C.2       7 UNK         0.5027 
     54 O         -50.2102  -26.1635   12.9782 O.2       7 UNK        -0.5083 
     55 CA        -48.4363  -27.3019   11.8396 C.3       6 UNK         0.0844 
     56 C56       -48.9291  -27.9810   10.5410 C.3       14 UNK        -0.0967 
     57 S57       -47.8894  -29.4034   10.0589 S.3       14 UNK        -0.2604 
     58 C58       -48.6853  -30.7772   10.9567 C.3       14 UNK         0.0134 
     59 N         -47.0086  -26.9853   11.8069 N.am      6 UNK        -0.4116 
     60 C         -46.2565  -26.7874   12.8959 C.2       5 UNK         0.5034 
     61 O         -46.6875  -26.8784   14.0441 O.2       5 UNK        -0.5045 
     62 CA        -44.7844  -26.3983   12.6765 C.3       5 UNK         0.0224 
     63 CB        -43.8840  -27.6392   12.7807 C.3       5 UNK        -0.1978 
     64 N         -44.5356  -25.7265   11.3980 N.am      5 UNK        -0.4737 
     65 C         -45.0441  -24.5403   11.0375 C.2       4 UNK         0.5027 
     66 O         -45.7714  -23.8683   11.7714 O.2       4 UNK        -0.5211 
     67 CA        -44.6988  -24.0279    9.6213 C.3       4 UNK         0.0297 
     68 CB        -43.8540  -25.0189    8.7873 C.3       4 UNK        -0.1993 
     69 N         -45.8678  -23.6136    8.8322 N.am      4 UNK        -0.4486 
     70 C         -47.0059  -24.2939    8.6334 C.2       3 UNK         0.4961 
     71 O         -47.3037  -25.3427    9.2075 O.2       3 UNK        -0.5105 
     72 CA        -47.9595  -23.7181    7.5813 C.3       3 UNK         0.0299 
     73 CB        -47.6694  -24.3234    6.1965 C.3       3 UNK        -0.1972 
     74 N         -49.3425  -23.9975    7.9602 N.am      3 UNK        -0.4305 
     75 C         -50.3876  -23.2205    7.6525 C.2       2 UNK         0.5006 
     76 O         -50.3062  -22.2222    6.9339 O.2       2 UNK        -0.5106 
     77 CA        -51.7483  -23.6305    8.2427 C.3       2 UNK         0.0296 
     78 CB        -52.8111  -22.5237    8.1041 C.3       2 UNK        -0.2002 
     79 N         -52.2425  -24.8438    7.5962 N.am      2 UNK        -0.4032 
     80 C         -51.8947  -26.0908    7.9311 C.2       1 UNK         0.5000 
     81 O         -51.1429  -26.3420    8.8744 O.2       1 UNK        -0.5238 
     82 H82       -51.3396  -25.3226    3.1368 H         1 UNK         0.0889 
     83 H83       -52.5814  -26.4650    2.6159 H         1 UNK         0.0889 
     84 H84       -51.0596  -27.0591    3.2831 H         1 UNK         0.0889 
     85 H85       -51.2613  -27.7569    5.3965 H         1 UNK         0.3028 
     86 H86       -53.5429  -27.1170    7.0533 H         1 UNK         0.0864 
     87 H87       -51.0554  -28.8038    7.6060 H         1 UNK         0.0720 
     88 H88       -52.4340  -28.6911    8.6740 H         1 UNK         0.0720 
     89 H89       -50.9895  -31.3278    6.5093 H         1 UNK         0.0814 
     90 H90       -52.4008  -32.3279    6.7572 H         1 UNK         0.0814 
     91 H91       -49.5443  -30.9283    8.3519 H         1 UNK         0.1469 
     92 H92       -50.9083  -31.4028   12.3857 H         1 UNK         0.1381 
     93 H93       -53.5681  -32.1434    9.0946 H         1 UNK         0.1206 
     94 H94       -53.6124  -31.2082   12.5240 H         1 UNK         0.0813 
     95 H95       -53.0549  -32.8431   12.5946 H         1 UNK         0.0813 
     96 H96       -56.9553  -31.3863   10.7961 H         1 UNK         0.0638 
     97 H97       -56.0698  -31.8346    9.3823 H         1 UNK         0.0638 
     98 H98       -54.3945  -30.0414    9.7980 H         1 UNK         0.0568 
     99 H99       -56.8932  -27.2601    8.8560 H         1 UNK         0.3450 
    100 H100      -56.0118  -27.3500   10.3610 H         1 UNK         0.3450 
    101 H101      -54.1599  -28.9662   11.6799 H         1 UNK         0.2987 
    102 H102      -56.3058  -27.6511   14.1021 H         1 UNK         0.0766 
    103 H103      -54.6834  -28.5476   15.7408 H         1 UNK         0.0798 
    104 H104      -54.0604  -29.6924   14.5541 H         1 UNK         0.0798 
    105 H105      -55.7055  -29.8496   15.1550 H         1 UNK         0.0798 
    106 H106      -53.5821  -27.2526   13.9551 H         1 UNK         0.3198 
    107 H107      -52.5386  -25.8669   11.7875 H         1 UNK         0.0843 
    108 H108      -52.8078  -23.3931   11.4088 H         1 UNK         0.0831 
    109 H109      -54.4955  -23.5150   11.8979 H         1 UNK         0.0831 
    110 H110      -53.9338  -24.3537   10.4615 H         1 UNK         0.0831 
    111 H111      -51.7895  -25.2019   13.7584 H         1 UNK         0.3133 
    112 H112      -52.3378  -22.9437   15.8040 H         1 UNK         0.0566 
    113 H113      -52.8769  -23.8738   18.0729 H         1 UNK         0.0814 
    114 H114      -54.3152  -23.4568   17.1597 H         1 UNK         0.0814 
    115 H115      -53.8423  -25.1401   17.3140 H         1 UNK         0.0814 
    116 H116      -50.5173  -24.1173   15.9145 H         1 UNK         0.3091 
    117 H117      -49.4821  -26.4858   17.5481 H         1 UNK         0.0702 
    118 H118      -48.3921  -28.2112   16.0780 H         1 UNK         0.0785 
    119 H119      -49.6669  -27.9817   14.8832 H         1 UNK         0.0785 
    120 H120      -50.0527  -28.6208   16.4733 H         1 UNK         0.0785 
    121 H121      -48.3663  -25.8318   14.9246 H         1 UNK         0.2998 
    122 H122      -47.5370  -22.4946   15.7702 H         1 UNK         0.0697 
    123 H123      -45.2896  -23.2299   14.8690 H         1 UNK         0.0825 
    124 H124      -45.5182  -23.6036   16.5704 H         1 UNK         0.0825 
    125 H125      -45.6581  -24.8790   15.3781 H         1 UNK         0.0825 
    126 H126      -47.1339  -23.9538   13.3656 H         1 UNK         0.3029 
    127 H127      -50.4646  -23.6146   12.0793 H         1 UNK         0.0897 
    128 H128      -49.2765  -22.5553   10.2177 H         1 UNK         0.0792 
    129 H129      -49.2446  -21.4696   11.5845 H         1 UNK         0.0792 
    130 H130      -47.8063  -22.3862   11.1718 H         1 UNK         0.0792 
    131 H131      -48.0587  -24.8640   11.0746 H         1 UNK         0.3086 
    132 H132      -48.5909  -28.0212   12.6465 H         1 UNK         0.0583 
    133 H133      -49.9688  -28.2995   10.6398 H         1 UNK         0.1020 
    134 H134      -48.9117  -27.2759    9.7103 H         1 UNK         0.1020 
    135 H135      -48.0454  -31.6570   10.8805 H         1 UNK         0.0694 
    136 H136      -48.7314  -30.5200   12.0161 H         1 UNK         0.0694 
    137 H137      -46.6003  -26.8569   10.8907 H         1 UNK         0.2989 
    138 H138      -44.5071  -25.7056   13.4731 H         1 UNK         0.1055 
    139 H139      -44.0267  -28.1448   13.7371 H         1 UNK         0.0806 
    140 H140      -42.8291  -27.3727   12.7127 H         1 UNK         0.0806 
    141 H141      -44.1008  -28.3637   11.9945 H         1 UNK         0.0806 
    142 H142      -43.9517  -26.2153   10.7345 H         1 UNK         0.3061 
    143 H143      -44.0985  -23.1296    9.7729 H         1 UNK         0.0734 
    144 H144      -44.3876  -25.9516    8.5980 H         1 UNK         0.0832 
    145 H145      -43.5955  -24.5908    7.8186 H         1 UNK         0.0832 
    146 H146      -42.9116  -25.2601    9.2810 H         1 UNK         0.0832 
    147 H147      -45.7575  -22.7372    8.3411 H         1 UNK         0.3156 
    148 H148      -47.8079  -22.6371    7.5406 H         1 UNK         0.0589 
    149 H149      -48.3130  -23.8902    5.4307 H         1 UNK         0.0808 
    150 H150      -46.6375  -24.1385    5.8949 H         1 UNK         0.0808 
    151 H151      -47.8236  -25.4033    6.1916 H         1 UNK         0.0808 
    152 H152      -49.4805  -24.8172    8.5432 H         1 UNK         0.3098 
    153 H153      -51.5997  -23.8199    9.3076 H         1 UNK         0.0720 
    154 H154      -52.4831  -21.6052    8.5927 H         1 UNK         0.0791 
    155 H155      -53.7541  -22.8160    8.5654 H         1 UNK         0.0791 
    156 H156      -53.0134  -22.2849    7.0591 H         1 UNK         0.0791 
    157 H157      -52.7967  -24.7279    6.7517 H         1 UNK         0.3028 
@<TRIPOS>BOND
     1    1    2 1    
     2    1   82 1    
     3    1   83 1    
     4    1   84 1    
     5    2    3 2    
     6    2    4 am   BACKBONE|DICT|INTERRES
     7    4    5 1    
     8    4   85 1    
     9    5    6 1    
    10    5   80 1    
    11    5   86 1    
    12    6    7 1    
    13    6   87 1    
    14    6   88 1    
    15    7    8 1    
    16    8    9 1    
    17    8   89 1    
    18    8   90 1    
    19    9   10 ar   
    20    9   14 ar   
    21   10   11 ar   
    22   10   91 1    
    23   11   12 ar   
    24   11   58 1    
    25   12   13 ar   
    26   12   92 1    
    27   13   14 ar   
    28   13   15 1    
    29   14   93 1    
    30   15   16 1    
    31   15   94 1    
    32   15   95 1    
    33   16   17 1    
    34   17   18 1    
    35   17   96 1    
    36   17   97 1    
    37   18   19 1    
    38   18   22 1    
    39   18   98 1    
    40   19   20 am   BACKBONE|DICT|INTERRES
    41   19   21 2    
    42   20   99 1    
    43   20  100 1    
    44   22   23 am   BACKBONE|DICT|INTERRES
    45   22  101 1    
    46   23   24 2    
    47   23   25 1    
    48   25   26 1    
    49   25   27 1    
    50   25  102 1    
    51   26  103 1    
    52   26  104 1    
    53   26  105 1    
    54   27   28 am   BACKBONE|DICT|INTERRES
    55   27  106 1    
    56   28   29 2    
    57   28   30 1    
    58   30   31 1    
    59   30   32 1    
    60   30  107 1    
    61   31  108 1    
    62   31  109 1    
    63   31  110 1    
    64   32   33 am   BACKBONE|DICT|INTERRES
    65   32  111 1    
    66   33   34 2    
    67   33   35 1    
    68   35   36 1    
    69   35   37 1    
    70   35  112 1    
    71   36  113 1    
    72   36  114 1    
    73   36  115 1    
    74   37   38 am   BACKBONE|DICT|INTERRES
    75   37  116 1    
    76   38   39 2    
    77   38   40 1    
    78   40   41 1    
    79   40   42 1    
    80   40  117 1    
    81   41  118 1    
    82   41  119 1    
    83   41  120 1    
    84   42   43 am   BACKBONE|DICT|INTERRES
    85   42  121 1    
    86   43   44 2    
    87   43   45 1    
    88   45   46 1    
    89   45   47 1    
    90   45  122 1    
    91   46  123 1    
    92   46  124 1    
    93   46  125 1    
    94   47   48 am   BACKBONE|DICT|INTERRES
    95   47  126 1    
    96   48   49 2    
    97   48   50 1    
    98   50   51 1    
    99   50   52 1    
   100   50  127 1    
   101   51  128 1    
   102   51  129 1    
   103   51  130 1    
   104   52   53 am   BACKBONE|DICT|INTERRES
   105   52  131 1    
   106   53   54 2    
   107   53   55 1    
   108   55   56 1    
   109   55   59 1    
   110   55  132 1    
   111   56   57 1    
   112   56  133 1    
   113   56  134 1    
   114   57   58 1    
   115   58  135 1    
   116   58  136 1    
   117   59   60 am   BACKBONE|DICT|INTERRES
   118   59  137 1    
   119   60   61 2    
   120   60   62 1    
   121   62   63 1    
   122   62   64 1    
   123   62  138 1    
   124   63  139 1    
   125   63  140 1    
   126   63  141 1    
   127   64   65 am   BACKBONE|DICT|INTERRES
   128   64  142 1    
   129   65   66 2    
   130   65   67 1    
   131   67   68 1    
   132   67   69 1    
   133   67  143 1    
   134   68  144 1    
   135   68  145 1    
   136   68  146 1    
   137   69   70 am   BACKBONE|DICT|INTERRES
   138   69  147 1    
   139   70   71 2    
   140   70   72 1    
   141   72   73 1    
   142   72   74 1    
   143   72  148 1    
   144   73  149 1    
   145   73  150 1    
   146   73  151 1    
   147   74   75 am   BACKBONE|DICT|INTERRES
   148   74  152 1    
   149   75   76 2    
   150   75   77 1    
   151   77   78 1    
   152   77   79 1    
   153   77  153 1    
   154   78  154 1    
   155   78  155 1    
   156   78  156 1    
   157   79   80 am   BACKBONE|DICT|INTERRES
   158   79  157 1    
   159   80   81 2    
@<TRIPOS>SUBSTRUCTURE
     1 UNK         1 GROUP             0       ****    0 ROOT    
