@<TRIPOS>MOLECULE
3R207
157   159    1
SMALL
USER_CHARGES


@<TRIPOS>ATOM
      1 CA        -52.8801  -23.4510    7.6144 C.3       0 UNK        -0.1975 
      2 C         -51.9863  -24.6766    7.5068 C.2       0 UNK         0.4852 
      3 O         -51.2578  -24.9849    8.4480 O.2       0 UNK        -0.5216 
      4 N         -52.0220  -25.3733    6.3637 N.am      1 UNK        -0.4461 
      5 CA        -51.2655  -26.6016    6.0821 C.3       1 UNK         0.0864 
      6 C6        -51.9791  -27.4783    5.0183 C.3       14 UNK        -0.0898 
      7 S7        -53.6729  -27.9694    5.4923 S.3       14 UNK        -0.2598 
      8 C8        -53.5281  -29.7819    5.6145 C.3       14 UNK         0.0286 
      9 C9        -53.1716  -30.2307    7.0244 C.ar      14 UNK        -0.0844 
     10 C10       -51.8481  -30.1885    7.4756 C.ar      14 UNK        -0.0881 
     11 C11       -51.5229  -30.6064    8.7729 C.ar      14 UNK        -0.0643 
     12 C12       -52.5350  -31.0929    9.6061 C.ar      14 UNK        -0.0930 
     13 C13       -53.8559  -31.1656    9.1563 C.ar      14 UNK        -0.0827 
     14 C14       -54.1705  -30.7213    7.8703 C.ar      14 UNK        -0.1249 
     15 C15       -54.9351  -31.7574   10.0477 C.3       14 UNK         0.0141 
     16 S16       -55.8461  -30.4610   10.9339 S.3       14 UNK        -0.2313 
     17 C17       -56.7902  -31.4699   12.1316 C.3       14 UNK        -0.0915 
     18 CA        -56.2417  -31.3783   13.5811 C.3       13 UNK         0.0968 
     19 C         -54.8946  -32.1449   13.7441 C.2       13 UNK         0.5732 
     20 N         -53.7791  -31.4859   14.0349 N.am      13 UNK        -0.7310 
     21 O         -54.8663  -33.3655   13.6064 O.2       13 UNK        -0.5035 
     22 N         -56.2471  -29.9860   14.0506 N.am      13 UNK        -0.4233 
     23 C         -56.0914  -29.5674   15.3099 C.2       13 UNK         0.4989 
     24 O         -55.9680  -30.3289   16.2707 O.2       13 UNK        -0.4996 
     25 CA        -56.0600  -28.0388   15.5188 C.3       12 UNK         0.0216 
     26 CB        -55.6962  -27.6459   16.9628 C.3       12 UNK        -0.1964 
     27 N         -55.1433  -27.3605   14.5929 N.am      12 UNK        -0.4276 
     28 C         -55.4070  -27.0780   13.3060 C.2       12 UNK         0.5020 
     29 O         -56.4577  -27.4096   12.7539 O.2       12 UNK        -0.5489 
     30 CA        -54.3234  -26.3312   12.4976 C.3       11 UNK         0.0294 
     31 CB        -54.8940  -25.5611   11.2887 C.3       11 UNK        -0.2019 
     32 N         -53.4798  -25.4578   13.3188 N.am      11 UNK        -0.4493 
     33 C         -53.8783  -24.4565   14.1193 C.2       11 UNK         0.4932 
     34 O         -55.0374  -24.0418   14.1700 O.2       11 UNK        -0.5029 
     35 CA        -52.8119  -23.8305   15.0411 C.3       10 UNK         0.0280 
     36 CB        -53.4160  -23.3142   16.3642 C.3       10 UNK        -0.1976 
     37 N         -51.6592  -24.7002   15.3185 N.am      10 UNK        -0.4242 
     38 C         -51.6606  -25.9198   15.8845 C.2       10 UNK         0.5072 
     39 O         -52.6932  -26.5116   16.2032 O.2       10 UNK        -0.5224 
     40 CA        -50.3024  -26.6251   16.1032 C.3       9 UNK         0.0343 
     41 CB        -50.3367  -28.0679   15.5675 C.3       9 UNK        -0.2003 
     42 N         -49.1756  -25.9264   15.4815 N.am      9 UNK        -0.4272 
     43 C         -48.5429  -24.8541   15.9778 C.2       9 UNK         0.4988 
     44 O         -48.7447  -24.3958   17.1019 O.2       9 UNK        -0.5108 
     45 CA        -47.5880  -24.1211   15.0171 C.3       8 UNK         0.0248 
     46 CB        -46.1599  -24.6829   15.1044 C.3       8 UNK        -0.2001 
     47 N         -48.0731  -24.1676   13.6310 N.am      8 UNK        -0.4140 
     48 C         -49.1625  -23.5099   13.2041 C.2       8 UNK         0.5028 
     49 O         -49.7978  -22.7296   13.9118 O.2       8 UNK        -0.5428 
     50 CA        -49.6692  -23.7948   11.7826 C.3       7 UNK         0.0264 
     51 CB        -49.1510  -22.7370   10.7995 C.3       7 UNK        -0.1988 
     52 N         -49.3210  -25.1332   11.3031 N.am      7 UNK        -0.4454 
     53 C         -49.9498  -26.2585   11.6777 C.2       7 UNK         0.5027 
     54 O         -50.8894  -26.2836   12.4734 O.2       7 UNK        -0.5083 
     55 CA        -49.3897  -27.5826   11.1108 C.3       6 UNK         0.0844 
     56 C56       -49.9071  -27.7969    9.6641 C.3       14 UNK        -0.0967 
     57 S57       -49.0978  -29.1603    8.7601 S.3       14 UNK        -0.2604 
     58 C58       -50.0827  -30.6024    9.2802 C.3       14 UNK         0.0134 
     59 N         -47.9277  -27.6268   11.1850 N.am      6 UNK        -0.4116 
     60 C         -47.1733  -27.4276   12.2723 C.2       5 UNK         0.5034 
     61 O         -47.6271  -27.2814   13.4064 O.2       5 UNK        -0.5045 
     62 CA        -45.6579  -27.2836   12.0419 C.3       5 UNK         0.0224 
     63 CB        -45.1323  -28.2002   10.9144 C.3       5 UNK        -0.1978 
     64 N         -45.2476  -25.8885   11.8012 N.am      5 UNK        -0.4737 
     65 C         -45.7141  -25.0560   10.8575 C.2       4 UNK         0.5027 
     66 O         -46.6443  -25.3380   10.0994 O.2       4 UNK        -0.5211 
     67 CA        -45.0462  -23.6799   10.7137 C.3       4 UNK         0.0297 
     68 CB        -43.5374  -23.6856   11.0287 C.3       4 UNK        -0.1993 
     69 N         -45.2663  -23.2604    9.3341 N.am      4 UNK        -0.4486 
     70 C         -45.4846  -22.0223    8.8858 C.2       3 UNK         0.4961 
     71 O         -45.4082  -21.0145    9.5891 O.2       3 UNK        -0.5105 
     72 CA        -45.8489  -21.8833    7.3926 C.3       3 UNK         0.0299 
     73 CB        -44.6560  -21.3204    6.6021 C.3       3 UNK        -0.1972 
     74 N         -46.2834  -23.1432    6.7698 N.am      3 UNK        -0.4305 
     75 C         -47.4792  -23.7172    6.9658 C.2       2 UNK         0.5006 
     76 O         -48.3702  -23.2179    7.6535 O.2       2 UNK        -0.5106 
     77 CA        -47.7166  -25.0676    6.2745 C.3       2 UNK         0.0296 
     78 CB        -46.7645  -26.1676    6.7864 C.3       2 UNK        -0.2002 
     79 N         -49.1013  -25.4858    6.4838 N.am      2 UNK        -0.4032 
     80 C         -49.8002  -26.2959    5.6821 C.2       1 UNK         0.5000 
     81 O         -49.3296  -26.7823    4.6506 O.2       1 UNK        -0.5238 
     82 H82       -53.4632  -23.2898    6.7080 H         1 UNK         0.0889 
     83 H83       -52.2744  -22.5628    7.7930 H         1 UNK         0.0889 
     84 H84       -53.5718  -23.5655    8.4485 H         1 UNK         0.0889 
     85 H85       -52.6308  -25.0657    5.6187 H         1 UNK         0.3028 
     86 H86       -51.2148  -27.1888    7.0013 H         1 UNK         0.0864 
     87 H87       -52.0431  -26.9438    4.0686 H         1 UNK         0.0720 
     88 H88       -51.3932  -28.3757    4.8140 H         1 UNK         0.0720 
     89 H89       -54.4829  -30.2187    5.3177 H         1 UNK         0.0814 
     90 H90       -52.7986  -30.1633    4.8989 H         1 UNK         0.0814 
     91 H91       -51.0706  -29.8328    6.8144 H         1 UNK         0.1469 
     92 H92       -52.2925  -31.4378   10.6022 H         1 UNK         0.1381 
     93 H93       -55.1943  -30.7708    7.5247 H         1 UNK         0.1206 
     94 H94       -54.4883  -32.4484   10.7640 H         1 UNK         0.0813 
     95 H95       -55.6336  -32.3449    9.4499 H         1 UNK         0.0813 
     96 H96       -57.8219  -31.1155   12.1140 H         1 UNK         0.0638 
     97 H97       -56.8362  -32.5075   11.7957 H         1 UNK         0.0638 
     98 H98       -56.9476  -31.9129   14.2191 H         1 UNK         0.0568 
     99 H99       -52.9190  -31.9983   14.1450 H         1 UNK         0.3450 
    100 H100      -53.7942  -30.4873   14.1563 H         1 UNK         0.3450 
    101 H101      -56.3482  -29.2759   13.3309 H         1 UNK         0.2987 
    102 H102      -57.0716  -27.6746   15.3274 H         1 UNK         0.0766 
    103 H103      -56.4173  -28.0513   17.6737 H         1 UNK         0.0798 
    104 H104      -55.6898  -26.5631   17.0903 H         1 UNK         0.0798 
    105 H105      -54.7119  -28.0210   17.2460 H         1 UNK         0.0798 
    106 H106      -54.2563  -27.0583   14.9873 H         1 UNK         0.3198 
    107 H107      -53.6608  -27.1053   12.1070 H         1 UNK         0.0843 
    108 H108      -55.6080  -24.7969   11.5968 H         1 UNK         0.0831 
    109 H109      -55.4123  -26.2347   10.6050 H         1 UNK         0.0831 
    110 H110      -54.1011  -25.0739   10.7208 H         1 UNK         0.0831 
    111 H111      -52.4900  -25.6976   13.3047 H         1 UNK         0.3133 
    112 H112      -52.4199  -22.9689   14.4999 H         1 UNK         0.0566 
    113 H113      -53.8885  -24.1170   16.9316 H         1 UNK         0.0814 
    114 H114      -54.1765  -22.5542   16.1807 H         1 UNK         0.0814 
    115 H115      -52.6541  -22.8591   16.9971 H         1 UNK         0.0814 
    116 H116      -50.7658  -24.3008   15.0591 H         1 UNK         0.3091 
    117 H117      -50.1350  -26.6673   17.1812 H         1 UNK         0.0702 
    118 H118      -49.3886  -28.5774   15.7410 H         1 UNK         0.0785 
    119 H119      -50.5378  -28.0949   14.4960 H         1 UNK         0.0785 
    120 H120      -51.1127  -28.6547   16.0608 H         1 UNK         0.0785 
    121 H121      -48.8777  -26.2790   14.5769 H         1 UNK         0.2998 
    122 H122      -47.5518  -23.0736   15.3247 H         1 UNK         0.0697 
    123 H123      -45.4810  -24.1473   14.4410 H         1 UNK         0.0825 
    124 H124      -46.1167  -25.7415   14.8511 H         1 UNK         0.0825 
    125 H125      -45.7680  -24.5801   16.1172 H         1 UNK         0.0825 
    126 H126      -47.6363  -24.8349   13.0129 H         1 UNK         0.3029 
    127 H127      -50.7586  -23.7154   11.8095 H         1 UNK         0.0897 
    128 H128      -49.3272  -21.7276   11.1737 H         1 UNK         0.0792 
    129 H129      -49.6688  -22.8172    9.8442 H         1 UNK         0.0792 
    130 H130      -48.0817  -22.8376   10.6134 H         1 UNK         0.0792 
    131 H131      -48.5288  -25.2034   10.6690 H         1 UNK         0.3086 
    132 H132      -49.7649  -28.3957   11.7351 H         1 UNK         0.0583 
    133 H133      -50.9896  -27.9401    9.6580 H         1 UNK         0.1020 
    134 H134      -49.7202  -26.9027    9.0690 H         1 UNK         0.1020 
    135 H135      -49.5901  -31.5045    8.9156 H         1 UNK         0.0694 
    136 H136      -50.0585  -30.6580   10.3697 H         1 UNK         0.0694 
    137 H137      -47.4541  -27.6819   10.2949 H         1 UNK         0.2989 
    138 H138      -45.1796  -27.5993   12.9709 H         1 UNK         0.1055 
    139 H139      -45.4735  -27.8887    9.9266 H         1 UNK         0.0806 
    140 H140      -45.4532  -29.2323   11.0639 H         1 UNK         0.0806 
    141 H141      -44.0424  -28.2048   10.8946 H         1 UNK         0.0806 
    142 H142      -44.4926  -25.5568   12.3855 H         1 UNK         0.3061 
    143 H143      -45.5583  -22.9935   11.3911 H         1 UNK         0.0734 
    144 H144      -43.0053  -24.4369   10.4434 H         1 UNK         0.0832 
    145 H145      -43.0873  -22.7171   10.8099 H         1 UNK         0.0832 
    146 H146      -43.3493  -23.8886   12.0833 H         1 UNK         0.0832 
    147 H147      -45.4610  -24.0271    8.7042 H         1 UNK         0.3156 
    148 H148      -46.6696  -21.1659    7.3248 H         1 UNK         0.0589 
    149 H149      -44.9174  -21.1457    5.5582 H         1 UNK         0.0808 
    150 H150      -43.7993  -21.9951    6.6274 H         1 UNK         0.0808 
    151 H151      -44.3295  -20.3650    7.0156 H         1 UNK         0.0808 
    152 H152      -45.6133  -23.6052    6.1712 H         1 UNK         0.3098 
    153 H153      -47.5469  -24.9124    5.2069 H         1 UNK         0.0720 
    154 H154      -45.7192  -25.8627    6.7339 H         1 UNK         0.0791 
    155 H155      -46.8607  -27.0755    6.1908 H         1 UNK         0.0791 
    156 H156      -46.9806  -26.4354    7.8200 H         1 UNK         0.0791 
    157 H157      -49.5661  -25.0588    7.2821 H         1 UNK         0.3028 
@<TRIPOS>BOND
     1    1    2 1    
     2    1   82 1    
     3    1   83 1    
     4    1   84 1    
     5    2    3 2    
     6    2    4 am   BACKBONE|DICT|INTERRES
     7    4    5 1    
     8    4   85 1    
     9    5    6 1    
    10    5   80 1    
    11    5   86 1    
    12    6    7 1    
    13    6   87 1    
    14    6   88 1    
    15    7    8 1    
    16    8    9 1    
    17    8   89 1    
    18    8   90 1    
    19    9   10 ar   
    20    9   14 ar   
    21   10   11 ar   
    22   10   91 1    
    23   11   12 ar   
    24   11   58 1    
    25   12   13 ar   
    26   12   92 1    
    27   13   14 ar   
    28   13   15 1    
    29   14   93 1    
    30   15   16 1    
    31   15   94 1    
    32   15   95 1    
    33   16   17 1    
    34   17   18 1    
    35   17   96 1    
    36   17   97 1    
    37   18   19 1    
    38   18   22 1    
    39   18   98 1    
    40   19   20 am   BACKBONE|DICT|INTERRES
    41   19   21 2    
    42   20   99 1    
    43   20  100 1    
    44   22   23 am   BACKBONE|DICT|INTERRES
    45   22  101 1    
    46   23   24 2    
    47   23   25 1    
    48   25   26 1    
    49   25   27 1    
    50   25  102 1    
    51   26  103 1    
    52   26  104 1    
    53   26  105 1    
    54   27   28 am   BACKBONE|DICT|INTERRES
    55   27  106 1    
    56   28   29 2    
    57   28   30 1    
    58   30   31 1    
    59   30   32 1    
    60   30  107 1    
    61   31  108 1    
    62   31  109 1    
    63   31  110 1    
    64   32   33 am   BACKBONE|DICT|INTERRES
    65   32  111 1    
    66   33   34 2    
    67   33   35 1    
    68   35   36 1    
    69   35   37 1    
    70   35  112 1    
    71   36  113 1    
    72   36  114 1    
    73   36  115 1    
    74   37   38 am   BACKBONE|DICT|INTERRES
    75   37  116 1    
    76   38   39 2    
    77   38   40 1    
    78   40   41 1    
    79   40   42 1    
    80   40  117 1    
    81   41  118 1    
    82   41  119 1    
    83   41  120 1    
    84   42   43 am   BACKBONE|DICT|INTERRES
    85   42  121 1    
    86   43   44 2    
    87   43   45 1    
    88   45   46 1    
    89   45   47 1    
    90   45  122 1    
    91   46  123 1    
    92   46  124 1    
    93   46  125 1    
    94   47   48 am   BACKBONE|DICT|INTERRES
    95   47  126 1    
    96   48   49 2    
    97   48   50 1    
    98   50   51 1    
    99   50   52 1    
   100   50  127 1    
   101   51  128 1    
   102   51  129 1    
   103   51  130 1    
   104   52   53 am   BACKBONE|DICT|INTERRES
   105   52  131 1    
   106   53   54 2    
   107   53   55 1    
   108   55   56 1    
   109   55   59 1    
   110   55  132 1    
   111   56   57 1    
   112   56  133 1    
   113   56  134 1    
   114   57   58 1    
   115   58  135 1    
   116   58  136 1    
   117   59   60 am   BACKBONE|DICT|INTERRES
   118   59  137 1    
   119   60   61 2    
   120   60   62 1    
   121   62   63 1    
   122   62   64 1    
   123   62  138 1    
   124   63  139 1    
   125   63  140 1    
   126   63  141 1    
   127   64   65 am   BACKBONE|DICT|INTERRES
   128   64  142 1    
   129   65   66 2    
   130   65   67 1    
   131   67   68 1    
   132   67   69 1    
   133   67  143 1    
   134   68  144 1    
   135   68  145 1    
   136   68  146 1    
   137   69   70 am   BACKBONE|DICT|INTERRES
   138   69  147 1    
   139   70   71 2    
   140   70   72 1    
   141   72   73 1    
   142   72   74 1    
   143   72  148 1    
   144   73  149 1    
   145   73  150 1    
   146   73  151 1    
   147   74   75 am   BACKBONE|DICT|INTERRES
   148   74  152 1    
   149   75   76 2    
   150   75   77 1    
   151   77   78 1    
   152   77   79 1    
   153   77  153 1    
   154   78  154 1    
   155   78  155 1    
   156   78  156 1    
   157   79   80 am   BACKBONE|DICT|INTERRES
   158   79  157 1    
   159   80   81 2    
@<TRIPOS>SUBSTRUCTURE
     1 UNK         1 GROUP             0       ****    0 ROOT    
