@<TRIPOS>MOLECULE
3R207
157   159    1
SMALL
USER_CHARGES


@<TRIPOS>ATOM
      1 CA        -51.6231  -28.6754    1.8464 C.3       0 UNK        -0.1975 
      2 C         -50.6888  -29.7224    2.4476 C.2       0 UNK         0.4852 
      3 O         -50.1737  -30.5632    1.7131 O.2       0 UNK        -0.5216 
      4 N         -50.4378  -29.7219    3.7653 N.am      1 UNK        -0.4461 
      5 CA        -50.9311  -28.7688    4.7702 C.3       1 UNK         0.0864 
      6 C6        -50.8508  -29.3598    6.1997 C.3       14 UNK        -0.0898 
      7 S7        -49.1848  -29.9332    6.6973 S.3       14 UNK        -0.2598 
      8 C8        -49.5862  -31.3381    7.7909 C.3       14 UNK         0.0286 
      9 C9        -50.1147  -30.8748    9.1428 C.ar      14 UNK        -0.0844 
     10 C10       -49.2741  -30.8319   10.2603 C.ar      14 UNK        -0.0881 
     11 C11       -49.7560  -30.3869   11.4982 C.ar      14 UNK        -0.0643 
     12 C12       -51.0880  -29.9712   11.6032 C.ar      14 UNK        -0.0930 
     13 C13       -51.9441  -30.0265   10.4994 C.ar      14 UNK        -0.0827 
     14 C14       -51.4537  -30.5012    9.2804 C.ar      14 UNK        -0.1249 
     15 C15       -53.4049  -29.6137   10.6397 C.3       14 UNK         0.0141 
     16 S16       -53.9504  -28.4749    9.3230 S.3       14 UNK        -0.2313 
     17 C17       -55.6601  -28.1275    9.8556 C.3       14 UNK        -0.0915 
     18 CA        -55.8456  -26.6393   10.2877 C.3       13 UNK         0.0968 
     19 C         -56.6153  -25.7679    9.2536 C.2       13 UNK         0.5732 
     20 N         -57.4243  -24.8014    9.6743 N.am      13 UNK        -0.7310 
     21 O         -56.4703  -25.9524    8.0476 O.2       13 UNK        -0.5035 
     22 N         -56.3636  -26.5186   11.6594 N.am      13 UNK        -0.4233 
     23 C         -55.6104  -26.6413   12.7556 C.2       13 UNK         0.4989 
     24 O         -54.4110  -26.9186   12.7404 O.2       13 UNK        -0.4996 
     25 CA        -56.3114  -26.4488   14.1018 C.3       12 UNK         0.0216 
     26 CB        -56.8907  -27.7844   14.6067 C.3       12 UNK        -0.1964 
     27 N         -55.3255  -25.9309   15.0449 N.am      12 UNK        -0.4276 
     28 C         -55.5791  -25.3624   16.2285 C.2       12 UNK         0.5020 
     29 O         -56.7159  -25.1807   16.6703 O.2       12 UNK        -0.5489 
     30 CA        -54.3508  -24.9214   17.0484 C.3       11 UNK         0.0294 
     31 CB        -54.6627  -24.6785   18.5405 C.3       11 UNK        -0.2019 
     32 N         -53.2149  -25.8336   16.8795 N.am      11 UNK        -0.4493 
     33 C         -53.1249  -27.1209   17.2456 C.2       11 UNK         0.4932 
     34 O         -53.9912  -27.7267   17.8770 O.2       11 UNK        -0.5029 
     35 CA        -51.8517  -27.8731   16.8159 C.3       10 UNK         0.0280 
     36 CB        -52.1109  -28.6477   15.5125 C.3       10 UNK        -0.1976 
     37 N         -50.6920  -26.9954   16.6320 N.am      10 UNK        -0.4242 
     38 C         -50.0489  -26.3539   17.6183 C.2       10 UNK         0.5072 
     39 O         -50.3145  -26.4896   18.8136 O.2       10 UNK        -0.5224 
     40 CA        -48.9338  -25.3785   17.2015 C.3       9 UNK         0.0343 
     41 CB        -47.6191  -26.1307   16.9390 C.3       9 UNK        -0.2003 
     42 N         -49.2894  -24.5720   16.0295 N.am      9 UNK        -0.4272 
     43 C         -50.2576  -23.6426   16.0139 C.2       9 UNK         0.4988 
     44 O         -50.9195  -23.3262   17.0024 O.2       9 UNK        -0.5108 
     45 CA        -50.5642  -22.9664   14.6660 C.3       8 UNK         0.0248 
     46 CB        -49.5554  -21.8437   14.3776 C.3       8 UNK        -0.2001 
     47 N         -50.5974  -23.9090   13.5450 N.am      8 UNK        -0.4140 
     48 C         -51.4702  -24.9208   13.4287 C.2       8 UNK         0.5028 
     49 O         -52.3830  -25.1257   14.2293 O.2       8 UNK        -0.5428 
     50 CA        -51.2519  -25.8997   12.2599 C.3       7 UNK         0.0264 
     51 CB        -51.8402  -25.3463   10.9536 C.3       7 UNK        -0.1988 
     52 N         -49.8422  -26.2483   12.0626 N.am      7 UNK        -0.4454 
     53 C         -49.0784  -26.8524   12.9858 C.2       7 UNK         0.5027 
     54 O         -49.4907  -27.2081   14.0890 O.2       7 UNK        -0.5083 
     55 CA        -47.5892  -27.0300   12.6422 C.3       6 UNK         0.0844 
     56 C56       -47.3637  -28.2145   11.6700 C.3       14 UNK        -0.0967 
     57 S57       -47.1586  -29.8249   12.4978 S.3       14 UNK        -0.2604 
     58 C58       -48.8772  -30.3905   12.7480 C.3       14 UNK         0.0134 
     59 N         -47.0399  -25.7797   12.1149 N.am      6 UNK        -0.4116 
     60 C         -46.8551  -24.6600   12.8285 C.2       5 UNK         0.5034 
     61 O         -47.0687  -24.5735   14.0370 O.2       5 UNK        -0.5045 
     62 CA        -46.3905  -23.4128   12.0549 C.3       5 UNK         0.0224 
     63 CB        -44.8561  -23.3598   11.9903 C.3       5 UNK        -0.1978 
     64 N         -46.9400  -23.3435   10.6973 N.am      5 UNK        -0.4737 
     65 C         -48.2420  -23.1918   10.4156 C.2       4 UNK         0.5027 
     66 O         -49.1072  -23.0252   11.2733 O.2       4 UNK        -0.5211 
     67 CA        -48.6557  -23.3035    8.9373 C.3       4 UNK         0.0297 
     68 CB        -48.6098  -21.9254    8.2602 C.3       4 UNK        -0.1993 
     69 N         -47.8498  -24.2566    8.1648 N.am      4 UNK        -0.4486 
     70 C         -47.7006  -25.5568    8.4491 C.2       3 UNK         0.4961 
     71 O         -48.2346  -26.1067    9.4140 O.2       3 UNK        -0.5105 
     72 CA        -46.7886  -26.3581    7.5021 C.3       3 UNK         0.0299 
     73 CB        -46.3653  -27.7147    8.0928 C.3       3 UNK        -0.1972 
     74 N         -47.4305  -26.5840    6.2084 N.am      3 UNK        -0.4305 
     75 C         -47.5543  -25.6715    5.2338 C.2       2 UNK         0.5006 
     76 O         -47.1282  -24.5186    5.3269 O.2       2 UNK        -0.5106 
     77 CA        -48.2537  -26.1077    3.9326 C.3       2 UNK         0.0296 
     78 CB        -47.2211  -26.3220    2.8137 C.3       2 UNK        -0.2002 
     79 N         -49.0570  -27.3247    4.0780 N.am      2 UNK        -0.4032 
     80 C         -50.2456  -27.3870    4.6963 C.2       1 UNK         0.5000 
     81 O         -50.8079  -26.4082    5.1889 O.2       1 UNK        -0.5238 
     82 H82       -51.2001  -27.6754    1.9333 H         1 UNK         0.0889 
     83 H83       -52.5980  -28.6921    2.3321 H         1 UNK         0.0889 
     84 H84       -51.7831  -28.8737    0.7867 H         1 UNK         0.0889 
     85 H85       -49.8277  -30.4377    4.1356 H         1 UNK         0.3028 
     86 H86       -51.9890  -28.5898    4.5702 H         1 UNK         0.0864 
     87 H87       -51.2095  -28.6414    6.9404 H         1 UNK         0.0720 
     88 H88       -51.5379  -30.2049    6.2530 H         1 UNK         0.0720 
     89 H89       -48.6857  -31.9385    7.9283 H         1 UNK         0.0814 
     90 H90       -50.3120  -31.9928    7.3063 H         1 UNK         0.0814 
     91 H91       -48.2440  -31.1474   10.1677 H         1 UNK         0.1469 
     92 H92       -51.4663  -29.6233   12.5549 H         1 UNK         0.1381 
     93 H93       -52.1192  -30.5637    8.4319 H         1 UNK         0.1206 
     94 H94       -53.5728  -29.1373   11.6062 H         1 UNK         0.0813 
     95 H95       -54.0268  -30.5095   10.6198 H         1 UNK         0.0813 
     96 H96       -55.9190  -28.8057   10.6702 H         1 UNK         0.0638 
     97 H97       -56.3327  -28.4046    9.0421 H         1 UNK         0.0638 
     98 H98       -54.8657  -26.1597   10.2985 H         1 UNK         0.0568 
     99 H99       -57.9111  -24.2459    8.9882 H         1 UNK         0.3450 
    100 H100      -57.5121  -24.5741   10.6509 H         1 UNK         0.3450 
    101 H101      -57.3523  -26.3307   11.7433 H         1 UNK         0.2987 
    102 H102      -57.1115  -25.7147   13.9868 H         1 UNK         0.0766 
    103 H103      -57.4194  -27.6599   15.5518 H         1 UNK         0.0798 
    104 H104      -56.1068  -28.5277   14.7590 H         1 UNK         0.0798 
    105 H105      -57.6023  -28.1999   13.8921 H         1 UNK         0.0798 
    106 H106      -54.3632  -25.9868   14.7161 H         1 UNK         0.3198 
    107 H107      -54.0312  -23.9694   16.6214 H         1 UNK         0.0843 
    108 H108      -55.0626  -25.5705   19.0232 H         1 UNK         0.0831 
    109 H109      -55.4037  -23.8872   18.6592 H         1 UNK         0.0831 
    110 H110      -53.7703  -24.3711   19.0859 H         1 UNK         0.0831 
    111 H111      -52.4805  -25.4796   16.2749 H         1 UNK         0.3133 
    112 H112      -51.6096  -28.5928   17.6004 H         1 UNK         0.0566 
    113 H113      -51.2437  -29.2423   15.2254 H         1 UNK         0.0814 
    114 H114      -52.9526  -29.3324   15.6240 H         1 UNK         0.0814 
    115 H115      -52.3456  -27.9763   14.6851 H         1 UNK         0.0814 
    116 H116      -50.3481  -26.8883   15.6786 H         1 UNK         0.3091 
    117 H117      -48.7674  -24.6935   18.0356 H         1 UNK         0.0702 
    118 H118      -46.8035  -25.4391   16.7271 H         1 UNK         0.0785 
    119 H119      -47.7041  -26.8144   16.0940 H         1 UNK         0.0785 
    120 H120      -47.3265  -26.7206   17.8085 H         1 UNK         0.0785 
    121 H121      -48.7501  -24.7350   15.1855 H         1 UNK         0.2998 
    122 H122      -51.5566  -22.5168   14.7411 H         1 UNK         0.0697 
    123 H123      -48.5398  -22.2276   14.2824 H         1 UNK         0.0825 
    124 H124      -49.5514  -21.1070   15.1821 H         1 UNK         0.0825 
    125 H125      -49.8013  -21.3161   13.4558 H         1 UNK         0.0825 
    126 H126      -49.9256  -23.7564   12.7957 H         1 UNK         0.3029 
    127 H127      -51.7814  -26.8227   12.5036 H         1 UNK         0.0897 
    128 H128      -51.7890  -26.0851   10.1533 H         1 UNK         0.0792 
    129 H129      -51.3205  -24.4484   10.6205 H         1 UNK         0.0792 
    130 H130      -52.8900  -25.0839   11.0864 H         1 UNK         0.0792 
    131 H131      -49.4239  -26.0095   11.1695 H         1 UNK         0.3086 
    132 H132      -47.0560  -27.2393   13.5723 H         1 UNK         0.0583 
    133 H133      -48.1340  -28.2719   10.8989 H         1 UNK         0.1020 
    134 H134      -46.4314  -28.0589   11.1280 H         1 UNK         0.1020 
    135 H135      -48.8461  -31.4086   13.1375 H         1 UNK         0.0694 
    136 H136      -49.3272  -29.7853   13.5349 H         1 UNK         0.0694 
    137 H137      -46.9346  -25.7321   11.1106 H         1 UNK         0.2989 
    138 H138      -46.7410  -22.5367   12.6049 H         1 UNK         0.1055 
    139 H139      -44.4233  -23.3891   12.9914 H         1 UNK         0.0806 
    140 H140      -44.5103  -22.4402   11.5177 H         1 UNK         0.0806 
    141 H141      -44.4432  -24.2011   11.4322 H         1 UNK         0.0806 
    142 H142      -46.2950  -23.4632    9.9294 H         1 UNK         0.3061 
    143 H143      -49.6871  -23.6606    8.9145 H         1 UNK         0.0734 
    144 H144      -48.9930  -21.9708    7.2406 H         1 UNK         0.0832 
    145 H145      -49.2225  -21.2040    8.8031 H         1 UNK         0.0832 
    146 H146      -47.5951  -21.5272    8.2209 H         1 UNK         0.0832 
    147 H147      -47.4253  -23.9183    7.3073 H         1 UNK         0.3156 
    148 H148      -45.8796  -25.7743    7.3414 H         1 UNK         0.0589 
    149 H149      -47.2236  -28.3284    8.3698 H         1 UNK         0.0808 
    150 H150      -45.7607  -28.2855    7.3879 H         1 UNK         0.0808 
    151 H151      -45.7591  -27.5704    8.9864 H         1 UNK         0.0808 
    152 H152      -47.8413  -27.4957    6.0668 H         1 UNK         0.3098 
    153 H153      -48.9159  -25.2927    3.6325 H         1 UNK         0.0720 
    154 H154      -47.7054  -26.5604    1.8665 H         1 UNK         0.0791 
    155 H155      -46.5288  -27.1308    3.0513 H         1 UNK         0.0791 
    156 H156      -46.6266  -25.4213    2.6531 H         1 UNK         0.0791 
    157 H157      -48.6690  -28.1785    3.7021 H         1 UNK         0.3028 
@<TRIPOS>BOND
     1    1    2 1    
     2    1   82 1    
     3    1   83 1    
     4    1   84 1    
     5    2    3 2    
     6    2    4 am   BACKBONE|DICT|INTERRES
     7    4    5 1    
     8    4   85 1    
     9    5    6 1    
    10    5   80 1    
    11    5   86 1    
    12    6    7 1    
    13    6   87 1    
    14    6   88 1    
    15    7    8 1    
    16    8    9 1    
    17    8   89 1    
    18    8   90 1    
    19    9   10 ar   
    20    9   14 ar   
    21   10   11 ar   
    22   10   91 1    
    23   11   12 ar   
    24   11   58 1    
    25   12   13 ar   
    26   12   92 1    
    27   13   14 ar   
    28   13   15 1    
    29   14   93 1    
    30   15   16 1    
    31   15   94 1    
    32   15   95 1    
    33   16   17 1    
    34   17   18 1    
    35   17   96 1    
    36   17   97 1    
    37   18   19 1    
    38   18   22 1    
    39   18   98 1    
    40   19   20 am   BACKBONE|DICT|INTERRES
    41   19   21 2    
    42   20   99 1    
    43   20  100 1    
    44   22   23 am   BACKBONE|DICT|INTERRES
    45   22  101 1    
    46   23   24 2    
    47   23   25 1    
    48   25   26 1    
    49   25   27 1    
    50   25  102 1    
    51   26  103 1    
    52   26  104 1    
    53   26  105 1    
    54   27   28 am   BACKBONE|DICT|INTERRES
    55   27  106 1    
    56   28   29 2    
    57   28   30 1    
    58   30   31 1    
    59   30   32 1    
    60   30  107 1    
    61   31  108 1    
    62   31  109 1    
    63   31  110 1    
    64   32   33 am   BACKBONE|DICT|INTERRES
    65   32  111 1    
    66   33   34 2    
    67   33   35 1    
    68   35   36 1    
    69   35   37 1    
    70   35  112 1    
    71   36  113 1    
    72   36  114 1    
    73   36  115 1    
    74   37   38 am   BACKBONE|DICT|INTERRES
    75   37  116 1    
    76   38   39 2    
    77   38   40 1    
    78   40   41 1    
    79   40   42 1    
    80   40  117 1    
    81   41  118 1    
    82   41  119 1    
    83   41  120 1    
    84   42   43 am   BACKBONE|DICT|INTERRES
    85   42  121 1    
    86   43   44 2    
    87   43   45 1    
    88   45   46 1    
    89   45   47 1    
    90   45  122 1    
    91   46  123 1    
    92   46  124 1    
    93   46  125 1    
    94   47   48 am   BACKBONE|DICT|INTERRES
    95   47  126 1    
    96   48   49 2    
    97   48   50 1    
    98   50   51 1    
    99   50   52 1    
   100   50  127 1    
   101   51  128 1    
   102   51  129 1    
   103   51  130 1    
   104   52   53 am   BACKBONE|DICT|INTERRES
   105   52  131 1    
   106   53   54 2    
   107   53   55 1    
   108   55   56 1    
   109   55   59 1    
   110   55  132 1    
   111   56   57 1    
   112   56  133 1    
   113   56  134 1    
   114   57   58 1    
   115   58  135 1    
   116   58  136 1    
   117   59   60 am   BACKBONE|DICT|INTERRES
   118   59  137 1    
   119   60   61 2    
   120   60   62 1    
   121   62   63 1    
   122   62   64 1    
   123   62  138 1    
   124   63  139 1    
   125   63  140 1    
   126   63  141 1    
   127   64   65 am   BACKBONE|DICT|INTERRES
   128   64  142 1    
   129   65   66 2    
   130   65   67 1    
   131   67   68 1    
   132   67   69 1    
   133   67  143 1    
   134   68  144 1    
   135   68  145 1    
   136   68  146 1    
   137   69   70 am   BACKBONE|DICT|INTERRES
   138   69  147 1    
   139   70   71 2    
   140   70   72 1    
   141   72   73 1    
   142   72   74 1    
   143   72  148 1    
   144   73  149 1    
   145   73  150 1    
   146   73  151 1    
   147   74   75 am   BACKBONE|DICT|INTERRES
   148   74  152 1    
   149   75   76 2    
   150   75   77 1    
   151   77   78 1    
   152   77   79 1    
   153   77  153 1    
   154   78  154 1    
   155   78  155 1    
   156   78  156 1    
   157   79   80 am   BACKBONE|DICT|INTERRES
   158   79  157 1    
   159   80   81 2    
@<TRIPOS>SUBSTRUCTURE
     1 UNK         1 GROUP             0       ****    0 ROOT    
