@<TRIPOS>MOLECULE
3R207
157   159    1
SMALL
USER_CHARGES


@<TRIPOS>ATOM
      1 CA        -49.0984  -30.4599    8.4589 C.3       0 UNK        -0.1975 
      2 C         -50.3150  -29.5472    8.3256 C.2       0 UNK         0.4852 
      3 O         -50.8463  -29.1146    9.3430 O.2       0 UNK        -0.5216 
      4 N         -50.7865  -29.2313    7.1088 N.am      1 UNK        -0.4461 
      5 CA        -50.2072  -29.6197    5.8130 C.3       1 UNK         0.0864 
      6 C6        -51.2834  -29.6922    4.6958 C.3       14 UNK        -0.0898 
      7 S7        -51.9375  -28.0792    4.1337 S.3       14 UNK        -0.2598 
      8 C8        -53.7145  -28.2248    4.5080 C.3       14 UNK         0.0286 
      9 C9        -53.9992  -28.1525    6.0009 C.ar      14 UNK        -0.0844 
     10 C10       -53.5696  -27.0487    6.7429 C.ar      14 UNK        -0.0881 
     11 C11       -53.8124  -26.9749    8.1167 C.ar      14 UNK        -0.0643 
     12 C12       -54.5382  -27.9938    8.7384 C.ar      14 UNK        -0.0930 
     13 C13       -54.9927  -29.0949    8.0048 C.ar      14 UNK        -0.0827 
     14 C14       -54.7110  -29.1737    6.6376 C.ar      14 UNK        -0.1249 
     15 C15       -55.8192  -30.1805    8.6811 C.3       14 UNK         0.0141 
     16 S16       -54.8593  -31.6798    9.0815 S.3       14 UNK        -0.2313 
     17 C17       -53.5329  -31.0773   10.1827 C.3       14 UNK        -0.0915 
     18 CA        -53.9270  -31.0456   11.6831 C.3       13 UNK         0.0968 
     19 C         -52.6694  -30.8741   12.5863 C.2       13 UNK         0.5732 
     20 N         -52.5199  -29.7910   13.3408 N.am      13 UNK        -0.7310 
     21 O         -51.8160  -31.7576   12.6163 O.2       13 UNK        -0.5035 
     22 N         -54.9762  -30.0485   11.9296 N.am      13 UNK        -0.4233 
     23 C         -55.8016  -30.0361   12.9791 C.2       13 UNK         0.4989 
     24 O         -55.8429  -30.9098   13.8476 O.2       13 UNK        -0.4996 
     25 CA        -56.7355  -28.8177   13.0749 C.3       12 UNK         0.0216 
     26 CB        -58.2110  -29.2518   13.0776 C.3       12 UNK        -0.1964 
     27 N         -56.4592  -28.0110   14.2655 N.am      12 UNK        -0.4276 
     28 C         -55.2926  -27.4124   14.5390 C.2       12 UNK         0.5020 
     29 O         -54.2979  -27.4628   13.8066 O.2       12 UNK        -0.5489 
     30 CA        -55.2232  -26.6406   15.8613 C.3       11 UNK         0.0294 
     31 CB        -55.0894  -27.6067   17.0544 C.3       11 UNK        -0.2019 
     32 N         -54.0698  -25.7494   15.8150 N.am      11 UNK        -0.4493 
     33 C         -53.8668  -24.6736   16.5844 C.2       11 UNK         0.4932 
     34 O         -54.6847  -24.2641   17.4105 O.2       11 UNK        -0.5029 
     35 CA        -52.5183  -23.9432   16.4017 C.3       10 UNK         0.0280 
     36 CB        -52.1595  -23.0268   17.5902 C.3       10 UNK        -0.1976 
     37 N         -51.4086  -24.8559   16.0966 N.am      10 UNK        -0.4242 
     38 C         -50.9799  -25.8874   16.8428 C.2       10 UNK         0.5072 
     39 O         -51.4272  -26.1787   17.9531 O.2       10 UNK        -0.5224 
     40 CA        -49.8758  -26.7628   16.2325 C.3       9 UNK         0.0343 
     41 CB        -50.4678  -27.7122   15.1787 C.3       9 UNK        -0.2003 
     42 N         -48.7898  -25.9795   15.6425 N.am      9 UNK        -0.4272 
     43 C         -47.8978  -25.2755   16.3542 C.2       9 UNK         0.4988 
     44 O         -47.8813  -25.2312   17.5851 O.2       9 UNK        -0.5108 
     45 CA        -46.8356  -24.4935   15.5646 C.3       8 UNK         0.0248 
     46 CB        -45.7115  -25.4306   15.0939 C.3       8 UNK        -0.2001 
     47 N         -47.3933  -23.7673   14.4215 N.am      8 UNK        -0.4140 
     48 C         -48.2328  -22.7261   14.5252 C.2       8 UNK         0.5028 
     49 O         -48.5896  -22.2354   15.5970 O.2       8 UNK        -0.5428 
     50 CA        -48.7778  -22.1309   13.2157 C.3       7 UNK         0.0264 
     51 CB        -47.7610  -21.1584   12.5970 C.3       7 UNK        -0.1988 
     52 N         -49.1541  -23.1445   12.2275 N.am      7 UNK        -0.4454 
     53 C         -50.1259  -24.0544   12.3996 C.2       7 UNK         0.5027 
     54 O         -50.8270  -24.1287   13.4093 O.2       7 UNK        -0.5083 
     55 CA        -50.3212  -25.0843   11.2704 C.3       6 UNK         0.0844 
     56 C56       -51.0885  -24.4475   10.0851 C.3       14 UNK        -0.0967 
     57 S57       -51.4796  -25.6630    8.7871 S.3       14 UNK        -0.2604 
     58 C58       -53.2877  -25.7985    8.9276 C.3       14 UNK         0.0134 
     59 N         -49.0455  -25.6873   10.8693 N.am      6 UNK        -0.4116 
     60 C         -48.2202  -26.3613   11.6844 C.2       5 UNK         0.5034 
     61 O         -48.4603  -26.6046   12.8664 O.2       5 UNK        -0.5045 
     62 CA        -46.8599  -26.7730   11.1051 C.3       5 UNK         0.0224 
     63 CB        -46.9760  -28.0562   10.2671 C.3       5 UNK        -0.1978 
     64 N         -46.2634  -25.6967   10.3108 N.am      5 UNK        -0.4737 
     65 C         -45.7944  -24.5528   10.8301 C.2       4 UNK         0.5027 
     66 O         -45.7802  -24.3055   12.0348 O.2       4 UNK        -0.5211 
     67 CA        -45.2891  -23.4908    9.8398 C.3       4 UNK         0.0297 
     68 CB        -43.8276  -23.7658    9.4528 C.3       4 UNK        -0.1993 
     69 N         -46.1111  -23.4055    8.6312 N.am      4 UNK        -0.4486 
     70 C         -47.3879  -22.9985    8.6118 C.2       3 UNK         0.4961 
     71 O         -48.0015  -22.6103    9.6062 O.2       3 UNK        -0.5105 
     72 CA        -48.1187  -23.0911    7.2606 C.3       3 UNK         0.0299 
     73 CB        -47.8492  -21.8370    6.4143 C.3       3 UNK        -0.1972 
     74 N         -47.7944  -24.2949    6.4817 N.am      3 UNK        -0.4305 
     75 C         -47.9625  -25.5487    6.9227 C.2       2 UNK         0.5006 
     76 O         -48.3114  -25.8312    8.0696 O.2       2 UNK        -0.5106 
     77 CA        -47.6723  -26.6897    5.9478 C.3       2 UNK         0.0296 
     78 CB        -46.2716  -27.2775    6.2078 C.3       2 UNK        -0.2002 
     79 N         -48.7113  -27.6894    6.1677 N.am      2 UNK        -0.4032 
     80 C         -48.9898  -28.7529    5.4043 C.2       1 UNK         0.5000 
     81 O         -48.3348  -29.0666    4.4086 O.2       1 UNK        -0.5238 
     82 H82       -48.8340  -30.5866    9.5086 H         1 UNK         0.0889 
     83 H83       -48.2299  -30.0448    7.9492 H         1 UNK         0.0889 
     84 H84       -49.3099  -31.4487    8.0534 H         1 UNK         0.0889 
     85 H85       -51.6090  -28.6439    7.0523 H         1 UNK         0.3028 
     86 H86       -49.8208  -30.6351    5.9127 H         1 UNK         0.0864 
     87 H87       -52.1085  -30.3257    5.0252 H         1 UNK         0.0720 
     88 H88       -50.8685  -30.1958    3.8208 H         1 UNK         0.0720 
     89 H89       -54.1000  -29.1493    4.0751 H         1 UNK         0.0814 
     90 H90       -54.2447  -27.4105    4.0124 H         1 UNK         0.0814 
     91 H91       -53.0206  -26.2545    6.2550 H         1 UNK         0.1469 
     92 H92       -54.7457  -27.9264    9.7960 H         1 UNK         0.1381 
     93 H93       -55.0590  -30.0259    6.0697 H         1 UNK         0.1206 
     94 H94       -56.2997  -29.7969    9.5808 H         1 UNK         0.0813 
     95 H95       -56.6367  -30.4678    8.0182 H         1 UNK         0.0813 
     96 H96       -53.1934  -30.0964    9.8545 H         1 UNK         0.0638 
     97 H97       -52.6839  -31.7456   10.0274 H         1 UNK         0.0638 
     98 H98       -54.3374  -32.0248   11.9368 H         1 UNK         0.0568 
     99 H99       -51.6953  -29.7135   13.9109 H         1 UNK         0.3450 
    100 H100      -53.2103  -29.0472   13.3477 H         1 UNK         0.3450 
    101 H101      -54.9761  -29.2586   11.3061 H         1 UNK         0.2987 
    102 H102      -56.5768  -28.1783   12.2037 H         1 UNK         0.0766 
    103 H103      -58.8797  -28.3907   13.0735 H         1 UNK         0.0798 
    104 H104      -58.4525  -29.8612   13.9496 H         1 UNK         0.0798 
    105 H105      -58.4440  -29.8450   12.1921 H         1 UNK         0.0798 
    106 H106      -57.2061  -27.9419   14.9417 H         1 UNK         0.3198 
    107 H107      -56.1326  -26.0443   15.9639 H         1 UNK         0.0843 
    108 H108      -54.1823  -28.2084   16.9813 H         1 UNK         0.0831 
    109 H109      -55.9346  -28.2940   17.1063 H         1 UNK         0.0831 
    110 H110      -55.0550  -27.0684   18.0017 H         1 UNK         0.0831 
    111 H111      -53.3901  -26.0000   15.1063 H         1 UNK         0.3133 
    112 H112      -52.6352  -23.3090   15.5219 H         1 UNK         0.0566 
    113 H113      -51.2101  -22.5174   17.4226 H         1 UNK         0.0814 
    114 H114      -52.9187  -22.2573   17.7351 H         1 UNK         0.0814 
    115 H115      -52.0804  -23.5860   18.5229 H         1 UNK         0.0814 
    116 H116      -50.9871  -24.7128   15.1803 H         1 UNK         0.3091 
    117 H117      -49.4541  -27.3734   17.0340 H         1 UNK         0.0702 
    118 H118      -49.7142  -28.4051   14.8040 H         1 UNK         0.0785 
    119 H119      -50.8740  -27.1683   14.3243 H         1 UNK         0.0785 
    120 H120      -51.2773  -28.3064   15.6049 H         1 UNK         0.0785 
    121 H121      -48.7004  -26.0132   14.6290 H         1 UNK         0.2998 
    122 H122      -46.3965  -23.7576   16.2416 H         1 UNK         0.0697 
    123 H123      -46.0737  -26.1678   14.3768 H         1 UNK         0.0825 
    124 H124      -45.2789  -25.9758   15.9338 H         1 UNK         0.0825 
    125 H125      -44.9038  -24.8727   14.6198 H         1 UNK         0.0825 
    126 H126      -47.0876  -24.0642   13.4989 H         1 UNK         0.3029 
    127 H127      -49.6792  -21.5666   13.4644 H         1 UNK         0.0897 
    128 H128      -48.1729  -20.6603   11.7190 H         1 UNK         0.0792 
    129 H129      -47.4794  -20.3813   13.3088 H         1 UNK         0.0792 
    130 H130      -46.8475  -21.6701   12.2919 H         1 UNK         0.0792 
    131 H131      -48.6499  -23.1252   11.3436 H         1 UNK         0.3086 
    132 H132      -50.9372  -25.8908   11.6745 H         1 UNK         0.0583 
    133 H133      -52.0137  -23.9822   10.4311 H         1 UNK         0.1020 
    134 H134      -50.5025  -23.6474    9.6305 H         1 UNK         0.1020 
    135 H135      -53.5548  -25.9077    9.9800 H         1 UNK         0.0694 
    136 H136      -53.7514  -24.8762    8.5752 H         1 UNK         0.0694 
    137 H137      -48.7857  -25.5881    9.8909 H         1 UNK         0.2989 
    138 H138      -46.1931  -26.9796   11.9453 H         1 UNK         0.1055 
    139 H139      -47.3619  -28.8772   10.8727 H         1 UNK         0.0806 
    140 H140      -46.0065  -28.3678    9.8788 H         1 UNK         0.0806 
    141 H141      -47.6540  -27.9337    9.4231 H         1 UNK         0.0806 
    142 H142      -46.3260  -25.7840    9.3064 H         1 UNK         0.3061 
    143 H143      -45.3321  -22.5226   10.3434 H         1 UNK         0.0734 
    144 H144      -43.4296  -22.9756    8.8159 H         1 UNK         0.0832 
    145 H145      -43.1938  -23.8142   10.3396 H         1 UNK         0.0832 
    146 H146      -43.7185  -24.7131    8.9232 H         1 UNK         0.0832 
    147 H147      -45.6922  -23.7095    7.7644 H         1 UNK         0.3156 
    148 H148      -49.1887  -23.1286    7.4758 H         1 UNK         0.0589 
    149 H149      -46.8007  -21.7610    6.1235 H         1 UNK         0.0808 
    150 H150      -48.0997  -20.9314    6.9691 H         1 UNK         0.0808 
    151 H151      -48.4517  -21.8334    5.5058 H         1 UNK         0.0808 
    152 H152      -47.4880  -24.1499    5.5300 H         1 UNK         0.3098 
    153 H153      -47.7419  -26.3238    4.9215 H         1 UNK         0.0720 
    154 H154      -45.5002  -26.5143    6.0984 H         1 UNK         0.0791 
    155 H155      -46.0343  -28.0750    5.5040 H         1 UNK         0.0791 
    156 H156      -46.1872  -27.6870    7.2152 H         1 UNK         0.0791 
    157 H157      -49.3027  -27.4918    6.9671 H         1 UNK         0.3028 
@<TRIPOS>BOND
     1    1    2 1    
     2    1   82 1    
     3    1   83 1    
     4    1   84 1    
     5    2    3 2    
     6    2    4 am   BACKBONE|DICT|INTERRES
     7    4    5 1    
     8    4   85 1    
     9    5    6 1    
    10    5   80 1    
    11    5   86 1    
    12    6    7 1    
    13    6   87 1    
    14    6   88 1    
    15    7    8 1    
    16    8    9 1    
    17    8   89 1    
    18    8   90 1    
    19    9   10 ar   
    20    9   14 ar   
    21   10   11 ar   
    22   10   91 1    
    23   11   12 ar   
    24   11   58 1    
    25   12   13 ar   
    26   12   92 1    
    27   13   14 ar   
    28   13   15 1    
    29   14   93 1    
    30   15   16 1    
    31   15   94 1    
    32   15   95 1    
    33   16   17 1    
    34   17   18 1    
    35   17   96 1    
    36   17   97 1    
    37   18   19 1    
    38   18   22 1    
    39   18   98 1    
    40   19   20 am   BACKBONE|DICT|INTERRES
    41   19   21 2    
    42   20   99 1    
    43   20  100 1    
    44   22   23 am   BACKBONE|DICT|INTERRES
    45   22  101 1    
    46   23   24 2    
    47   23   25 1    
    48   25   26 1    
    49   25   27 1    
    50   25  102 1    
    51   26  103 1    
    52   26  104 1    
    53   26  105 1    
    54   27   28 am   BACKBONE|DICT|INTERRES
    55   27  106 1    
    56   28   29 2    
    57   28   30 1    
    58   30   31 1    
    59   30   32 1    
    60   30  107 1    
    61   31  108 1    
    62   31  109 1    
    63   31  110 1    
    64   32   33 am   BACKBONE|DICT|INTERRES
    65   32  111 1    
    66   33   34 2    
    67   33   35 1    
    68   35   36 1    
    69   35   37 1    
    70   35  112 1    
    71   36  113 1    
    72   36  114 1    
    73   36  115 1    
    74   37   38 am   BACKBONE|DICT|INTERRES
    75   37  116 1    
    76   38   39 2    
    77   38   40 1    
    78   40   41 1    
    79   40   42 1    
    80   40  117 1    
    81   41  118 1    
    82   41  119 1    
    83   41  120 1    
    84   42   43 am   BACKBONE|DICT|INTERRES
    85   42  121 1    
    86   43   44 2    
    87   43   45 1    
    88   45   46 1    
    89   45   47 1    
    90   45  122 1    
    91   46  123 1    
    92   46  124 1    
    93   46  125 1    
    94   47   48 am   BACKBONE|DICT|INTERRES
    95   47  126 1    
    96   48   49 2    
    97   48   50 1    
    98   50   51 1    
    99   50   52 1    
   100   50  127 1    
   101   51  128 1    
   102   51  129 1    
   103   51  130 1    
   104   52   53 am   BACKBONE|DICT|INTERRES
   105   52  131 1    
   106   53   54 2    
   107   53   55 1    
   108   55   56 1    
   109   55   59 1    
   110   55  132 1    
   111   56   57 1    
   112   56  133 1    
   113   56  134 1    
   114   57   58 1    
   115   58  135 1    
   116   58  136 1    
   117   59   60 am   BACKBONE|DICT|INTERRES
   118   59  137 1    
   119   60   61 2    
   120   60   62 1    
   121   62   63 1    
   122   62   64 1    
   123   62  138 1    
   124   63  139 1    
   125   63  140 1    
   126   63  141 1    
   127   64   65 am   BACKBONE|DICT|INTERRES
   128   64  142 1    
   129   65   66 2    
   130   65   67 1    
   131   67   68 1    
   132   67   69 1    
   133   67  143 1    
   134   68  144 1    
   135   68  145 1    
   136   68  146 1    
   137   69   70 am   BACKBONE|DICT|INTERRES
   138   69  147 1    
   139   70   71 2    
   140   70   72 1    
   141   72   73 1    
   142   72   74 1    
   143   72  148 1    
   144   73  149 1    
   145   73  150 1    
   146   73  151 1    
   147   74   75 am   BACKBONE|DICT|INTERRES
   148   74  152 1    
   149   75   76 2    
   150   75   77 1    
   151   77   78 1    
   152   77   79 1    
   153   77  153 1    
   154   78  154 1    
   155   78  155 1    
   156   78  156 1    
   157   79   80 am   BACKBONE|DICT|INTERRES
   158   79  157 1    
   159   80   81 2    
@<TRIPOS>SUBSTRUCTURE
     1 UNK         1 GROUP             0       ****    0 ROOT    
