@<TRIPOS>MOLECULE
3R207
157   159    1
SMALL
USER_CHARGES


@<TRIPOS>ATOM
      1 CA        -46.5836  -27.8943    7.6409 C.3       0 UNK        -0.1975 
      2 C         -47.4236  -27.3386    6.5035 C.2       0 UNK         0.4852 
      3 O         -46.8747  -26.9699    5.4634 O.2       0 UNK        -0.5216 
      4 N         -48.7493  -27.2659    6.6869 N.am      1 UNK        -0.4461 
      5 CA        -49.6982  -26.7208    5.7098 C.3       1 UNK         0.0864 
      6 C6        -51.1712  -26.9497    6.1213 C.3       14 UNK        -0.0898 
      7 S7        -51.6036  -28.7215    6.1416 S.3       14 UNK        -0.2598 
      8 C8        -52.7462  -28.8309    7.5649 C.3       14 UNK         0.0286 
      9 C9        -52.1774  -29.4404    8.8500 C.ar      14 UNK        -0.0844 
     10 C10       -50.8896  -29.9899    8.9439 C.ar      14 UNK        -0.0881 
     11 C11       -50.4506  -30.5861   10.1314 C.ar      14 UNK        -0.0643 
     12 C12       -51.3074  -30.6368   11.2337 C.ar      14 UNK        -0.0930 
     13 C13       -52.5914  -30.0913   11.1594 C.ar      14 UNK        -0.0827 
     14 C14       -53.0116  -29.4860    9.9715 C.ar      14 UNK        -0.1249 
     15 C15       -53.5143  -30.1370   12.3686 C.3       14 UNK         0.0141 
     16 S16       -55.0815  -30.9942   12.0204 S.3       14 UNK        -0.2313 
     17 C17       -56.0247  -30.6104   13.5360 C.3       14 UNK        -0.0915 
     18 CA        -57.0174  -29.4345   13.3273 C.3       13 UNK         0.0968 
     19 C         -58.0023  -29.2728   14.5220 C.2       13 UNK         0.5732 
     20 N         -58.2124  -28.0798   15.0692 N.am      13 UNK        -0.7310 
     21 O         -58.6169  -30.2485   14.9475 O.2       13 UNK        -0.5035 
     22 N         -56.3047  -28.1898   13.0121 N.am      13 UNK        -0.4233 
     23 C         -56.5427  -27.4020   11.9572 C.2       13 UNK         0.4989 
     24 O         -57.3612  -27.6709   11.0759 O.2       13 UNK        -0.4996 
     25 CA        -55.7233  -26.0974   11.8497 C.3       12 UNK         0.0216 
     26 CB        -56.5296  -24.9513   11.2034 C.3       12 UNK        -0.1964 
     27 N         -55.1135  -25.6457   13.1079 N.am      12 UNK        -0.4276 
     28 C         -55.7320  -25.3427   14.2566 C.2       12 UNK         0.5020 
     29 O         -56.9510  -25.4344   14.4224 O.2       12 UNK        -0.5489 
     30 CA        -54.8184  -24.9277   15.4282 C.3       11 UNK         0.0294 
     31 CB        -55.6156  -24.6310   16.7150 C.3       11 UNK        -0.2019 
     32 N         -53.7442  -25.8868   15.7316 N.am      11 UNK        -0.4493 
     33 C         -53.8503  -27.2162   15.8997 C.2       11 UNK         0.4932 
     34 O         -54.8743  -27.8557   15.6581 O.2       11 UNK        -0.5029 
     35 CA        -52.6193  -27.9678   16.4438 C.3       10 UNK         0.0280 
     36 CB        -52.4610  -29.3608   15.8150 C.3       10 UNK        -0.1976 
     37 N         -51.3734  -27.2223   16.2572 N.am      10 UNK        -0.4242 
     38 C         -50.7441  -26.5283   17.2144 C.2       10 UNK         0.5072 
     39 O         -51.1352  -26.4490   18.3797 O.2       10 UNK        -0.5224 
     40 CA        -49.4740  -25.7664   16.7979 C.3       9 UNK         0.0343 
     41 CB        -48.2548  -26.7014   16.8125 C.3       9 UNK        -0.2003 
     42 N         -49.5748  -25.1130   15.4892 N.am      9 UNK        -0.4272 
     43 C         -50.4804  -24.1781   15.1630 C.2       9 UNK         0.4988 
     44 O         -51.3780  -23.7942   15.9133 O.2       9 UNK        -0.5108 
     45 CA        -50.3867  -23.5960   13.7466 C.3       8 UNK         0.0248 
     46 CB        -49.2136  -22.6106   13.6249 C.3       8 UNK        -0.2001 
     47 N         -50.2659  -24.6569   12.7475 N.am      8 UNK        -0.4140 
     48 C         -51.2976  -25.4104   12.3437 C.2       8 UNK         0.5028 
     49 O         -52.4580  -25.2264   12.7058 O.2       8 UNK        -0.5428 
     50 CA        -50.9892  -26.5878   11.4086 C.3       7 UNK         0.0264 
     51 CB        -51.0513  -26.1493    9.9399 C.3       7 UNK        -0.1988 
     52 N         -49.6936  -27.2072   11.6864 N.am      7 UNK        -0.4454 
     53 C         -49.4241  -27.8963   12.8056 C.2       7 UNK         0.5027 
     54 O         -50.2349  -28.0574   13.7179 O.2       7 UNK        -0.5083 
     55 CA        -47.9951  -28.4499   12.9748 C.3       6 UNK         0.0844 
     56 C56       -47.8697  -29.8975   12.4343 C.3       14 UNK        -0.0967 
     57 S57       -47.7679  -30.0117   10.6105 S.3       14 UNK        -0.2604 
     58 C58       -49.0680  -31.2194   10.2040 C.3       14 UNK         0.0134 
     59 N         -46.9608  -27.5632   12.4361 N.am      6 UNK        -0.4116 
     60 C         -46.7723  -26.2776   12.7622 C.2       5 UNK         0.5034 
     61 O         -47.4360  -25.6783   13.6107 O.2       5 UNK        -0.5045 
     62 CA        -45.7018  -25.5050   11.9703 C.3       5 UNK         0.0224 
     63 CB        -44.7069  -26.4103   11.2072 C.3       5 UNK        -0.1978 
     64 N         -46.3042  -24.5329   11.0495 N.am      5 UNK        -0.4737 
     65 C         -47.2092  -24.7769   10.0898 C.2       4 UNK         0.5027 
     66 O         -47.7103  -25.8826    9.8800 O.2       4 UNK        -0.5211 
     67 CA        -47.6419  -23.5927    9.2098 C.3       4 UNK         0.0297 
     68 CB        -47.4213  -22.2031    9.8500 C.3       4 UNK        -0.1993 
     69 N         -47.0326  -23.6733    7.8797 N.am      4 UNK        -0.4486 
     70 C         -45.7281  -23.5808    7.5685 C.2       3 UNK         0.4961 
     71 O         -44.8419  -23.3769    8.3989 O.2       3 UNK        -0.5105 
     72 CA        -45.3209  -23.7338    6.0879 C.3       3 UNK         0.0299 
     73 CB        -44.2600  -24.8352    5.9151 C.3       3 UNK        -0.1972 
     74 N         -46.4550  -24.0126    5.2026 N.am      3 UNK        -0.4305 
     75 C         -47.2517  -23.0742    4.6669 C.2       2 UNK         0.5006 
     76 O         -47.0603  -21.8645    4.7943 O.2       2 UNK        -0.5106 
     77 CA        -48.4889  -23.5516    3.8796 C.3       2 UNK         0.0296 
     78 CB        -48.2069  -23.5250    2.3685 C.3       2 UNK        -0.2002 
     79 N         -48.9587  -24.8879    4.2597 N.am      2 UNK        -0.4032 
     80 C         -49.4095  -25.2259    5.4763 C.2       1 UNK         0.5000 
     81 O         -49.5336  -24.4277    6.4082 O.2       1 UNK        -0.5238 
     82 H82       -46.0534  -28.7901    7.3200 H         1 UNK         0.0889 
     83 H83       -47.1990  -28.1496    8.5011 H         1 UNK         0.0889 
     84 H84       -45.8516  -27.1543    7.9621 H         1 UNK         0.0889 
     85 H85       -49.1447  -27.5481    7.5715 H         1 UNK         0.3028 
     86 H86       -49.5321  -27.2503    4.7687 H         1 UNK         0.0864 
     87 H87       -51.8460  -26.4608    5.4158 H         1 UNK         0.0720 
     88 H88       -51.3718  -26.4981    7.0928 H         1 UNK         0.0720 
     89 H89       -53.5926  -29.4448    7.2539 H         1 UNK         0.0814 
     90 H90       -53.1586  -27.8448    7.7830 H         1 UNK         0.0814 
     91 H91       -50.2227  -29.9792    8.0943 H         1 UNK         0.1469 
     92 H92       -50.9747  -31.1050   12.1495 H         1 UNK         0.1381 
     93 H93       -54.0077  -29.0675    9.9154 H         1 UNK         0.1206 
     94 H94       -53.0321  -30.6612   13.1932 H         1 UNK         0.0813 
     95 H95       -53.7072  -29.1175   12.7038 H         1 UNK         0.0813 
     96 H96       -56.5600  -31.5198   13.8144 H         1 UNK         0.0638 
     97 H97       -55.3401  -30.3977   14.3589 H         1 UNK         0.0638 
     98 H98       -57.6574  -29.7059   12.4863 H         1 UNK         0.0568 
     99 H99       -57.7222  -27.2539   14.7406 H         1 UNK         0.3450 
    100 H100      -58.8607  -28.0016   15.8356 H         1 UNK         0.3450 
    101 H101      -55.6697  -27.8709   13.7354 H         1 UNK         0.2987 
    102 H102      -54.8890  -26.3281   11.1854 H         1 UNK         0.0766 
    103 H103      -57.4150  -24.7017   11.7892 H         1 UNK         0.0798 
    104 H104      -55.9262  -24.0488   11.1059 H         1 UNK         0.0798 
    105 H105      -56.8671  -25.2213   10.2020 H         1 UNK         0.0798 
    106 H106      -54.0962  -25.5297   13.0712 H         1 UNK         0.3198 
    107 H107      -54.3273  -24.0030   15.1201 H         1 UNK         0.0843 
    108 H108      -56.3711  -23.8638   16.5407 H         1 UNK         0.0831 
    109 H109      -54.9646  -24.2683   17.5105 H         1 UNK         0.0831 
    110 H110      -56.1310  -25.5198   17.0816 H         1 UNK         0.0831 
    111 H111      -52.8409  -25.4642   15.9120 H         1 UNK         0.3133 
    112 H112      -52.8072  -28.1179   17.5086 H         1 UNK         0.0566 
    113 H113      -51.6382  -29.9091   16.2736 H         1 UNK         0.0814 
    114 H114      -53.3603  -29.9651   15.9390 H         1 UNK         0.0814 
    115 H115      -52.2533  -29.2830   14.7511 H         1 UNK         0.0814 
    116 H116      -50.9590  -27.2731   15.3289 H         1 UNK         0.3091 
    117 H117      -49.3064  -24.9799   17.5366 H         1 UNK         0.0702 
    118 H118      -47.3381  -26.1652   16.5661 H         1 UNK         0.0785 
    119 H119      -48.3679  -27.5183   16.1003 H         1 UNK         0.0785 
    120 H120      -48.1164  -27.1460   17.7989 H         1 UNK         0.0785 
    121 H121      -48.8598  -25.3536   14.8065 H         1 UNK         0.2998 
    122 H122      -51.3069  -23.0383   13.5575 H         1 UNK         0.0697 
    123 H123      -48.2459  -23.1092   13.6867 H         1 UNK         0.0825 
    124 H124      -49.2471  -21.8643   14.4199 H         1 UNK         0.0825 
    125 H125      -49.2578  -22.0698   12.6809 H         1 UNK         0.0825 
    126 H126      -49.3326  -24.9179   12.4605 H         1 UNK         0.3029 
    127 H127      -51.7585  -27.3454   11.5695 H         1 UNK         0.0897 
    128 H128      -50.7827  -26.9719    9.2794 H         1 UNK         0.0792 
    129 H129      -50.3763  -25.3201    9.7309 H         1 UNK         0.0792 
    130 H130      -52.0585  -25.8275    9.6725 H         1 UNK         0.0792 
    131 H131      -48.9568  -27.0662   11.0013 H         1 UNK         0.3086 
    132 H132      -47.8162  -28.4984   14.0499 H         1 UNK         0.0583 
    133 H133      -46.9613  -30.3491   12.8361 H         1 UNK         0.1020 
    134 H134      -48.6840  -30.5195   12.8098 H         1 UNK         0.1020 
    135 H135      -48.8285  -31.6702    9.2398 H         1 UNK         0.0694 
    136 H136      -49.0534  -32.0372   10.9261 H         1 UNK         0.0694 
    137 H137      -46.4078  -27.9484   11.6845 H         1 UNK         0.2989 
    138 H138      -45.1344  -24.9347   12.7076 H         1 UNK         0.1055 
    139 H139      -44.2200  -27.1188   11.8790 H         1 UNK         0.0806 
    140 H140      -43.9177  -25.8152   10.7472 H         1 UNK         0.0806 
    141 H141      -45.1871  -26.9795   10.4107 H         1 UNK         0.0806 
    142 H142      -45.9625  -23.5855   11.1314 H         1 UNK         0.3061 
    143 H143      -48.7154  -23.7074    9.0552 H         1 UNK         0.0734 
    144 H144      -47.8585  -21.4187    9.2321 H         1 UNK         0.0832 
    145 H145      -47.9001  -22.1423   10.8261 H         1 UNK         0.0832 
    146 H146      -46.3677  -21.9600    9.9868 H         1 UNK         0.0832 
    147 H147      -47.6917  -23.8759    7.1353 H         1 UNK         0.3156 
    148 H148      -44.8624  -22.7895    5.7871 H         1 UNK         0.0589 
    149 H149      -44.6172  -25.8036    6.2634 H         1 UNK         0.0808 
    150 H150      -43.9642  -24.9422    4.8714 H         1 UNK         0.0808 
    151 H151      -43.3581  -24.6014    6.4824 H         1 UNK         0.0808 
    152 H152      -46.6820  -24.9939    5.0660 H         1 UNK         0.3098 
    153 H153      -49.2966  -22.8472    4.0894 H         1 UNK         0.0720 
    154 H154      -49.0989  -23.7729    1.7928 H         1 UNK         0.0791 
    155 H155      -47.4203  -24.2283    2.0918 H         1 UNK         0.0791 
    156 H156      -47.8838  -22.5330    2.0492 H         1 UNK         0.0791 
    157 H157      -48.8558  -25.6132    3.5639 H         1 UNK         0.3028 
@<TRIPOS>BOND
     1    1    2 1    
     2    1   82 1    
     3    1   83 1    
     4    1   84 1    
     5    2    3 2    
     6    2    4 am   BACKBONE|DICT|INTERRES
     7    4    5 1    
     8    4   85 1    
     9    5    6 1    
    10    5   80 1    
    11    5   86 1    
    12    6    7 1    
    13    6   87 1    
    14    6   88 1    
    15    7    8 1    
    16    8    9 1    
    17    8   89 1    
    18    8   90 1    
    19    9   10 ar   
    20    9   14 ar   
    21   10   11 ar   
    22   10   91 1    
    23   11   12 ar   
    24   11   58 1    
    25   12   13 ar   
    26   12   92 1    
    27   13   14 ar   
    28   13   15 1    
    29   14   93 1    
    30   15   16 1    
    31   15   94 1    
    32   15   95 1    
    33   16   17 1    
    34   17   18 1    
    35   17   96 1    
    36   17   97 1    
    37   18   19 1    
    38   18   22 1    
    39   18   98 1    
    40   19   20 am   BACKBONE|DICT|INTERRES
    41   19   21 2    
    42   20   99 1    
    43   20  100 1    
    44   22   23 am   BACKBONE|DICT|INTERRES
    45   22  101 1    
    46   23   24 2    
    47   23   25 1    
    48   25   26 1    
    49   25   27 1    
    50   25  102 1    
    51   26  103 1    
    52   26  104 1    
    53   26  105 1    
    54   27   28 am   BACKBONE|DICT|INTERRES
    55   27  106 1    
    56   28   29 2    
    57   28   30 1    
    58   30   31 1    
    59   30   32 1    
    60   30  107 1    
    61   31  108 1    
    62   31  109 1    
    63   31  110 1    
    64   32   33 am   BACKBONE|DICT|INTERRES
    65   32  111 1    
    66   33   34 2    
    67   33   35 1    
    68   35   36 1    
    69   35   37 1    
    70   35  112 1    
    71   36  113 1    
    72   36  114 1    
    73   36  115 1    
    74   37   38 am   BACKBONE|DICT|INTERRES
    75   37  116 1    
    76   38   39 2    
    77   38   40 1    
    78   40   41 1    
    79   40   42 1    
    80   40  117 1    
    81   41  118 1    
    82   41  119 1    
    83   41  120 1    
    84   42   43 am   BACKBONE|DICT|INTERRES
    85   42  121 1    
    86   43   44 2    
    87   43   45 1    
    88   45   46 1    
    89   45   47 1    
    90   45  122 1    
    91   46  123 1    
    92   46  124 1    
    93   46  125 1    
    94   47   48 am   BACKBONE|DICT|INTERRES
    95   47  126 1    
    96   48   49 2    
    97   48   50 1    
    98   50   51 1    
    99   50   52 1    
   100   50  127 1    
   101   51  128 1    
   102   51  129 1    
   103   51  130 1    
   104   52   53 am   BACKBONE|DICT|INTERRES
   105   52  131 1    
   106   53   54 2    
   107   53   55 1    
   108   55   56 1    
   109   55   59 1    
   110   55  132 1    
   111   56   57 1    
   112   56  133 1    
   113   56  134 1    
   114   57   58 1    
   115   58  135 1    
   116   58  136 1    
   117   59   60 am   BACKBONE|DICT|INTERRES
   118   59  137 1    
   119   60   61 2    
   120   60   62 1    
   121   62   63 1    
   122   62   64 1    
   123   62  138 1    
   124   63  139 1    
   125   63  140 1    
   126   63  141 1    
   127   64   65 am   BACKBONE|DICT|INTERRES
   128   64  142 1    
   129   65   66 2    
   130   65   67 1    
   131   67   68 1    
   132   67   69 1    
   133   67  143 1    
   134   68  144 1    
   135   68  145 1    
   136   68  146 1    
   137   69   70 am   BACKBONE|DICT|INTERRES
   138   69  147 1    
   139   70   71 2    
   140   70   72 1    
   141   72   73 1    
   142   72   74 1    
   143   72  148 1    
   144   73  149 1    
   145   73  150 1    
   146   73  151 1    
   147   74   75 am   BACKBONE|DICT|INTERRES
   148   74  152 1    
   149   75   76 2    
   150   75   77 1    
   151   77   78 1    
   152   77   79 1    
   153   77  153 1    
   154   78  154 1    
   155   78  155 1    
   156   78  156 1    
   157   79   80 am   BACKBONE|DICT|INTERRES
   158   79  157 1    
   159   80   81 2    
@<TRIPOS>SUBSTRUCTURE
     1 UNK         1 GROUP             0       ****    0 ROOT    
