@<TRIPOS>MOLECULE
3R207
157   159    1
SMALL
USER_CHARGES


@<TRIPOS>ATOM
      1 CA        -45.5538  -26.5632    5.9363 C.3       0 UNK        -0.1975 
      2 C         -46.9029  -27.0759    5.4544 C.2       0 UNK         0.4852 
      3 O         -47.1267  -27.1605    4.2465 O.2       0 UNK        -0.5216 
      4 N         -47.7998  -27.4239    6.3857 N.am      1 UNK        -0.4461 
      5 CA        -49.1095  -28.0244    6.0952 C.3       1 UNK         0.0864 
      6 C6        -49.5727  -28.9318    7.2577 C.3       14 UNK        -0.0898 
      7 S7        -48.5270  -30.4172    7.4232 S.3       14 UNK        -0.2598 
      8 C8        -49.7812  -31.7018    7.7396 C.3       14 UNK         0.0286 
      9 C9        -50.4841  -31.4674    9.0686 C.ar      14 UNK        -0.0844 
     10 C10       -49.7980  -31.6867   10.2638 C.ar      14 UNK        -0.0881 
     11 C11       -50.3966  -31.4088   11.4992 C.ar      14 UNK        -0.0643 
     12 C12       -51.7166  -30.9420   11.5225 C.ar      14 UNK        -0.0930 
     13 C13       -52.4260  -30.7488   10.3317 C.ar      14 UNK        -0.0827 
     14 C14       -51.8033  -31.0112    9.1082 C.ar      14 UNK        -0.1249 
     15 C15       -53.8600  -30.2424   10.3522 C.3       14 UNK         0.0141 
     16 S16       -53.9058  -28.4644    9.9910 S.3       14 UNK        -0.2313 
     17 C17       -55.6940  -28.1488    9.8051 C.3       14 UNK        -0.0915 
     18 CA        -56.3643  -27.5205   11.0641 C.3       13 UNK         0.0968 
     19 C         -56.8192  -28.5960   12.0895 C.2       13 UNK         0.5732 
     20 N         -56.4328  -28.5469   13.3556 N.am      13 UNK        -0.7310 
     21 O         -57.5764  -29.4950   11.7306 O.2       13 UNK        -0.5035 
     22 N         -55.5964  -26.3866   11.6125 N.am      13 UNK        -0.4233 
     23 C         -55.4836  -25.2017   10.9945 C.2       13 UNK         0.4989 
     24 O         -56.1268  -24.9005    9.9863 O.2       13 UNK        -0.4996 
     25 CA        -54.4558  -24.1972   11.5585 C.3       12 UNK         0.0216 
     26 CB        -54.6730  -22.7531   11.0560 C.3       12 UNK        -0.1964 
     27 N         -54.3301  -24.2345   13.0189 N.am      12 UNK        -0.4276 
     28 C         -55.2932  -23.9737   13.9150 C.2       12 UNK         0.5020 
     29 O         -56.4218  -23.5877   13.6030 O.2       12 UNK        -0.5489 
     30 CA        -54.9575  -24.1768   15.4105 C.3       11 UNK         0.0294 
     31 CB        -56.2195  -24.4946   16.2404 C.3       11 UNK        -0.2019 
     32 N         -53.9200  -25.1712   15.7234 N.am      11 UNK        -0.4493 
     33 C         -53.8256  -26.4372   15.2941 C.2       11 UNK         0.4932 
     34 O         -54.5147  -26.9002   14.3847 O.2       11 UNK        -0.5029 
     35 CA        -52.8028  -27.3401   16.0149 C.3       10 UNK         0.0280 
     36 CB        -52.6463  -28.7142   15.3353 C.3       10 UNK        -0.1976 
     37 N         -51.4816  -26.7235   16.1569 N.am      10 UNK        -0.4242 
     38 C         -51.1408  -25.7824   17.0485 C.2       10 UNK         0.5072 
     39 O         -51.9301  -25.2897   17.8554 O.2       10 UNK        -0.5224 
     40 CA        -49.6923  -25.2747   16.9988 C.3       9 UNK         0.0343 
     41 CB        -48.7207  -26.3034   17.6012 C.3       9 UNK        -0.2003 
     42 N         -49.2986  -24.9621   15.6259 N.am      9 UNK        -0.4272 
     43 C         -49.6403  -23.8374   14.9802 C.2       9 UNK         0.4988 
     44 O         -50.2239  -22.8907   15.5086 O.2       9 UNK        -0.5108 
     45 CA        -49.2849  -23.7621   13.4851 C.3       8 UNK         0.0248 
     46 CB        -47.8676  -23.1981   13.3013 C.3       8 UNK        -0.2001 
     47 N         -49.3983  -25.0607   12.8137 N.am      8 UNK        -0.4140 
     48 C         -50.5642  -25.7013   12.6268 C.2       8 UNK         0.5028 
     49 O         -51.6556  -25.2277   12.9397 O.2       8 UNK        -0.5428 
     50 CA        -50.5169  -27.1155   12.0211 C.3       7 UNK         0.0264 
     51 CB        -50.7249  -27.0499   10.5031 C.3       7 UNK        -0.1988 
     52 N         -49.2824  -27.8486   12.3170 N.am      7 UNK        -0.4454 
     53 C         -48.8503  -28.1554   13.5504 C.2       7 UNK         0.5027 
     54 O         -49.4965  -27.9133   14.5693 O.2       7 UNK        -0.5083 
     55 CA        -47.4368  -28.7618   13.6980 C.3       6 UNK         0.0844 
     56 C56       -47.4848  -30.2612   14.0820 C.3       14 UNK        -0.0967 
     57 S57       -47.8400  -31.3742   12.6822 S.3       14 UNK        -0.2604 
     58 C58       -49.6482  -31.6221   12.8151 C.3       14 UNK         0.0134 
     59 N         -46.5445  -28.4840   12.5622 N.am      6 UNK        -0.4116 
     60 C         -46.1729  -27.2555   12.1765 C.2       5 UNK         0.5034 
     61 O         -46.5502  -26.2321   12.7542 O.2       5 UNK        -0.5045 
     62 CA        -45.2526  -27.1212   10.9458 C.3       5 UNK         0.0224 
     63 CB        -45.2661  -28.3460    9.9989 C.3       5 UNK        -0.1978 
     64 N         -45.5514  -25.8650   10.2427 N.am      5 UNK        -0.4737 
     65 C         -46.6694  -25.5873    9.5619 C.2       4 UNK         0.5027 
     66 O         -47.4713  -26.4332    9.1522 O.2       4 UNK        -0.5211 
     67 CA        -46.9575  -24.1065    9.3062 C.3       4 UNK         0.0297 
     68 CB        -46.3091  -23.6162    8.0015 C.3       4 UNK        -0.1993 
     69 N         -48.4038  -23.9764    9.2180 N.am      4 UNK        -0.4486 
     70 C         -49.1438  -22.9073    9.5244 C.2       3 UNK         0.4961 
     71 O         -48.6812  -21.8497    9.9540 O.2       3 UNK        -0.5105 
     72 CA        -50.6608  -23.0647    9.2830 C.3       3 UNK         0.0299 
     73 CB        -51.4139  -21.7180    9.2945 C.3       3 UNK        -0.1972 
     74 N         -50.9519  -23.8241    8.0548 N.am      3 UNK        -0.4305 
     75 C         -50.5739  -23.5062    6.8053 C.2       2 UNK         0.5006 
     76 O         -49.9801  -22.4716    6.4979 O.2       2 UNK        -0.5106 
     77 CA        -50.8374  -24.5770    5.7420 C.3       2 UNK         0.0296 
     78 CB        -50.6614  -24.0603    4.2999 C.3       2 UNK        -0.2002 
     79 N         -49.9214  -25.6902    5.9857 N.am      2 UNK        -0.4032 
     80 C         -50.1944  -26.9796    5.7508 C.2       1 UNK         0.5000 
     81 O         -51.2651  -27.3664    5.2784 O.2       1 UNK        -0.5238 
     82 H82       -44.7543  -27.1812    5.5287 H         1 UNK         0.0889 
     83 H83       -45.4720  -26.5860    7.0222 H         1 UNK         0.0889 
     84 H84       -45.3954  -25.5395    5.5990 H         1 UNK         0.0889 
     85 H85       -47.5790  -27.3107    7.3720 H         1 UNK         0.3028 
     86 H86       -49.0128  -28.6524    5.2065 H         1 UNK         0.0864 
     87 H87       -50.6067  -29.2487    7.1102 H         1 UNK         0.0720 
     88 H88       -49.5492  -28.3887    8.2022 H         1 UNK         0.0720 
     89 H89       -49.2952  -32.6784    7.7535 H         1 UNK         0.0814 
     90 H90       -50.4963  -31.7268    6.9158 H         1 UNK         0.0814 
     91 H91       -48.7822  -32.0529   10.2181 H         1 UNK         0.1469 
     92 H92       -52.1940  -30.7274   12.4689 H         1 UNK         0.1381 
     93 H93       -52.3432  -30.8402    8.1868 H         1 UNK         0.1206 
     94 H94       -54.3241  -30.4290   11.3219 H         1 UNK         0.0813 
     95 H95       -54.4505  -30.7843    9.6120 H         1 UNK         0.0813 
     96 H96       -55.8025  -27.4612    8.9655 H         1 UNK         0.0638 
     97 H97       -56.2023  -29.0605    9.4864 H         1 UNK         0.0638 
     98 H98       -57.3153  -27.1008   10.7306 H         1 UNK         0.0568 
     99 H99       -55.7738  -27.8514   13.7002 H         1 UNK         0.3450 
    100 H100      -56.7687  -29.2569   13.9851 H         1 UNK         0.3450 
    101 H101      -55.0696  -26.5630   12.4611 H         1 UNK         0.2987 
    102 H102      -53.4925  -24.5272   11.1684 H         1 UNK         0.0766 
    103 H103      -55.6422  -22.3580   11.3612 H         1 UNK         0.0798 
    104 H104      -53.9017  -22.0824   11.4343 H         1 UNK         0.0798 
    105 H105      -54.6348  -22.7075    9.9671 H         1 UNK         0.0798 
    106 H106      -53.4322  -24.5831   13.3512 H         1 UNK         0.3198 
    107 H107      -54.5669  -23.2184   15.7560 H         1 UNK         0.0843 
    108 H108      -56.9644  -23.7029   16.1508 H         1 UNK         0.0831 
    109 H109      -55.9851  -24.5926   17.3004 H         1 UNK         0.0831 
    110 H110      -56.6884  -25.4235   15.9130 H         1 UNK         0.0831 
    111 H111      -53.2767  -24.9106   16.4657 H         1 UNK         0.3133 
    112 H112      -53.2002  -27.5189   17.0159 H         1 UNK         0.0566 
    113 H113      -51.9448  -29.3485   15.8773 H         1 UNK         0.0814 
    114 H114      -53.5988  -29.2445   15.2975 H         1 UNK         0.0814 
    115 H115      -52.2870  -28.6194   14.3116 H         1 UNK         0.0814 
    116 H116      -50.7594  -27.0769   15.5309 H         1 UNK         0.3091 
    117 H117      -49.6320  -24.3648   17.6002 H         1 UNK         0.0702 
    118 H118      -47.6986  -25.9244   17.6076 H         1 UNK         0.0785 
    119 H119      -48.7244  -27.2449   17.0513 H         1 UNK         0.0785 
    120 H120      -48.9879  -26.5299   18.6342 H         1 UNK         0.0785 
    121 H121      -48.8500  -25.7011   15.1031 H         1 UNK         0.2998 
    122 H122      -49.9885  -23.0760   13.0081 H         1 UNK         0.0697 
    123 H123      -47.1142  -23.8269   13.7769 H         1 UNK         0.0825 
    124 H124      -47.7858  -22.2038   13.7421 H         1 UNK         0.0825 
    125 H125      -47.6100  -23.1041   12.2479 H         1 UNK         0.0825 
    126 H126      -48.5305  -25.5250   12.5685 H         1 UNK         0.3029 
    127 H127      -51.3490  -27.6780   12.4467 H         1 UNK         0.0897 
    128 H128      -50.8417  -28.0504   10.0865 H         1 UNK         0.0792 
    129 H129      -49.8930  -26.5633    9.9984 H         1 UNK         0.0792 
    130 H130      -51.6289  -26.4917   10.2568 H         1 UNK         0.0792 
    131 H131      -48.6978  -28.0904   11.5297 H         1 UNK         0.3086 
    132 H132      -46.9981  -28.2430   14.5534 H         1 UNK         0.0583 
    133 H133      -46.5119  -30.5522   14.4811 H         1 UNK         0.1020 
    134 H134      -48.1872  -30.4409   14.8988 H         1 UNK         0.1020 
    135 H135      -49.8363  -32.6379   13.1644 H         1 UNK         0.0694 
    136 H136      -50.0557  -30.9546   13.5756 H         1 UNK         0.0694 
    137 H137      -46.2259  -29.2874   12.0396 H         1 UNK         0.2989 
    138 H138      -44.2394  -27.0175   11.3373 H         1 UNK         0.1055 
    139 H139      -44.8080  -29.2148   10.4727 H         1 UNK         0.0806 
    140 H140      -44.6970  -28.1463    9.0910 H         1 UNK         0.0806 
    141 H141      -46.2748  -28.6330    9.6989 H         1 UNK         0.0806 
    142 H142      -44.9688  -25.0851   10.5160 H         1 UNK         0.3061 
    143 H143      -46.5833  -23.5209   10.1480 H         1 UNK         0.0734 
    144 H144      -46.4714  -22.5473    7.8615 H         1 UNK         0.0832 
    145 H145      -45.2313  -23.7832    8.0073 H         1 UNK         0.0832 
    146 H146      -46.7203  -24.1273    7.1313 H         1 UNK         0.0832 
    147 H147      -48.8620  -24.8363    8.9477 H         1 UNK         0.3156 
    148 H148      -51.0424  -23.6610   10.1135 H         1 UNK         0.0589 
    149 H149      -51.0205  -21.0274    8.5478 H         1 UNK         0.0808 
    150 H150      -52.4762  -21.8540    9.0955 H         1 UNK         0.0808 
    151 H151      -51.3248  -21.2306   10.2661 H         1 UNK         0.0808 
    152 H152      -51.4354  -24.7017    8.1866 H         1 UNK         0.3098 
    153 H153      -51.8712  -24.9079    5.8652 H         1 UNK         0.0720 
    154 H154      -50.9185  -24.8288    3.5707 H         1 UNK         0.0791 
    155 H155      -49.6351  -23.7463    4.1054 H         1 UNK         0.0791 
    156 H156      -51.3091  -23.2035    4.1101 H         1 UNK         0.0791 
    157 H157      -49.0150  -25.4523    6.3625 H         1 UNK         0.3028 
@<TRIPOS>BOND
     1    1    2 1    
     2    1   82 1    
     3    1   83 1    
     4    1   84 1    
     5    2    3 2    
     6    2    4 am   BACKBONE|DICT|INTERRES
     7    4    5 1    
     8    4   85 1    
     9    5    6 1    
    10    5   80 1    
    11    5   86 1    
    12    6    7 1    
    13    6   87 1    
    14    6   88 1    
    15    7    8 1    
    16    8    9 1    
    17    8   89 1    
    18    8   90 1    
    19    9   10 ar   
    20    9   14 ar   
    21   10   11 ar   
    22   10   91 1    
    23   11   12 ar   
    24   11   58 1    
    25   12   13 ar   
    26   12   92 1    
    27   13   14 ar   
    28   13   15 1    
    29   14   93 1    
    30   15   16 1    
    31   15   94 1    
    32   15   95 1    
    33   16   17 1    
    34   17   18 1    
    35   17   96 1    
    36   17   97 1    
    37   18   19 1    
    38   18   22 1    
    39   18   98 1    
    40   19   20 am   BACKBONE|DICT|INTERRES
    41   19   21 2    
    42   20   99 1    
    43   20  100 1    
    44   22   23 am   BACKBONE|DICT|INTERRES
    45   22  101 1    
    46   23   24 2    
    47   23   25 1    
    48   25   26 1    
    49   25   27 1    
    50   25  102 1    
    51   26  103 1    
    52   26  104 1    
    53   26  105 1    
    54   27   28 am   BACKBONE|DICT|INTERRES
    55   27  106 1    
    56   28   29 2    
    57   28   30 1    
    58   30   31 1    
    59   30   32 1    
    60   30  107 1    
    61   31  108 1    
    62   31  109 1    
    63   31  110 1    
    64   32   33 am   BACKBONE|DICT|INTERRES
    65   32  111 1    
    66   33   34 2    
    67   33   35 1    
    68   35   36 1    
    69   35   37 1    
    70   35  112 1    
    71   36  113 1    
    72   36  114 1    
    73   36  115 1    
    74   37   38 am   BACKBONE|DICT|INTERRES
    75   37  116 1    
    76   38   39 2    
    77   38   40 1    
    78   40   41 1    
    79   40   42 1    
    80   40  117 1    
    81   41  118 1    
    82   41  119 1    
    83   41  120 1    
    84   42   43 am   BACKBONE|DICT|INTERRES
    85   42  121 1    
    86   43   44 2    
    87   43   45 1    
    88   45   46 1    
    89   45   47 1    
    90   45  122 1    
    91   46  123 1    
    92   46  124 1    
    93   46  125 1    
    94   47   48 am   BACKBONE|DICT|INTERRES
    95   47  126 1    
    96   48   49 2    
    97   48   50 1    
    98   50   51 1    
    99   50   52 1    
   100   50  127 1    
   101   51  128 1    
   102   51  129 1    
   103   51  130 1    
   104   52   53 am   BACKBONE|DICT|INTERRES
   105   52  131 1    
   106   53   54 2    
   107   53   55 1    
   108   55   56 1    
   109   55   59 1    
   110   55  132 1    
   111   56   57 1    
   112   56  133 1    
   113   56  134 1    
   114   57   58 1    
   115   58  135 1    
   116   58  136 1    
   117   59   60 am   BACKBONE|DICT|INTERRES
   118   59  137 1    
   119   60   61 2    
   120   60   62 1    
   121   62   63 1    
   122   62   64 1    
   123   62  138 1    
   124   63  139 1    
   125   63  140 1    
   126   63  141 1    
   127   64   65 am   BACKBONE|DICT|INTERRES
   128   64  142 1    
   129   65   66 2    
   130   65   67 1    
   131   67   68 1    
   132   67   69 1    
   133   67  143 1    
   134   68  144 1    
   135   68  145 1    
   136   68  146 1    
   137   69   70 am   BACKBONE|DICT|INTERRES
   138   69  147 1    
   139   70   71 2    
   140   70   72 1    
   141   72   73 1    
   142   72   74 1    
   143   72  148 1    
   144   73  149 1    
   145   73  150 1    
   146   73  151 1    
   147   74   75 am   BACKBONE|DICT|INTERRES
   148   74  152 1    
   149   75   76 2    
   150   75   77 1    
   151   77   78 1    
   152   77   79 1    
   153   77  153 1    
   154   78  154 1    
   155   78  155 1    
   156   78  156 1    
   157   79   80 am   BACKBONE|DICT|INTERRES
   158   79  157 1    
   159   80   81 2    
@<TRIPOS>SUBSTRUCTURE
     1 UNK         1 GROUP             0       ****    0 ROOT    
