@<TRIPOS>MOLECULE
3R207
157   159    1
SMALL
USER_CHARGES


@<TRIPOS>ATOM
      1 CA        -46.0456  -32.2337    7.6075 C.3       0 UNK        -0.1975 
      2 C         -46.6984  -30.8605    7.6534 C.2       0 UNK         0.4852 
      3 O         -46.2745  -30.0124    8.4392 O.2       0 UNK        -0.5216 
      4 N         -47.7123  -30.6346    6.8050 N.am      1 UNK        -0.4461 
      5 CA        -48.5402  -29.4231    6.6661 C.3       1 UNK         0.0864 
      6 C6        -49.3136  -29.0275    7.9538 C.3       14 UNK        -0.0898 
      7 S7        -50.4499  -30.3257    8.5432 S.3       14 UNK        -0.2598 
      8 C8        -51.9484  -30.0060    7.5587 C.3       14 UNK         0.0286 
      9 C9        -52.6508  -28.7109    7.9458 C.ar      14 UNK        -0.0844 
     10 C10       -52.4278  -27.5452    7.2092 C.ar      14 UNK        -0.0881 
     11 C11       -53.1079  -26.3666    7.5208 C.ar      14 UNK        -0.0643 
     12 C12       -54.0265  -26.3642    8.5762 C.ar      14 UNK        -0.0930 
     13 C13       -54.2739  -27.5234    9.3219 C.ar      14 UNK        -0.0827 
     14 C14       -53.5669  -28.6927    9.0023 C.ar      14 UNK        -0.1249 
     15 C15       -55.3420  -27.4584   10.4208 C.3       14 UNK         0.0141 
     16 S16       -55.7192  -29.0333   11.2719 S.3       14 UNK        -0.2313 
     17 C17       -57.3661  -28.6906   11.9848 C.3       14 UNK        -0.0915 
     18 CA        -57.3335  -28.2060   13.4595 C.3       13 UNK         0.0968 
     19 C         -58.7695  -27.8540   13.9475 C.2       13 UNK         0.5732 
     20 N         -59.3579  -28.5944   14.8796 N.am      13 UNK        -0.7310 
     21 O         -59.3591  -26.8873   13.4702 O.2       13 UNK        -0.5035 
     22 N         -56.5864  -29.1329   14.3257 N.am      13 UNK        -0.4233 
     23 C         -56.1409  -28.8468   15.5562 C.2       13 UNK         0.4989 
     24 O         -56.3759  -27.7903   16.1452 O.2       13 UNK        -0.4996 
     25 CA        -55.2528  -29.8933   16.2439 C.3       12 UNK         0.0216 
     26 CB        -55.2488  -31.2816   15.5665 C.3       12 UNK        -0.1964 
     27 N         -53.8960  -29.3582   16.2810 N.am      12 UNK        -0.4276 
     28 C         -52.9757  -29.6117   17.2204 C.2       12 UNK         0.5020 
     29 O         -53.1892  -30.3323   18.1978 O.2       12 UNK        -0.5489 
     30 CA        -51.5883  -28.9475   17.0536 C.3       11 UNK         0.0294 
     31 CB        -50.4527  -29.7554   17.7172 C.3       11 UNK        -0.2019 
     32 N         -51.2569  -28.6190   15.6613 N.am      11 UNK        -0.4493 
     33 C         -51.1476  -29.4691   14.6249 C.2       11 UNK         0.4932 
     34 O         -51.1536  -30.6951   14.7436 O.2       11 UNK        -0.5029 
     35 CA        -51.0491  -28.8460   13.2132 C.3       10 UNK         0.0280 
     36 CB        -51.7069  -29.7310   12.1352 C.3       10 UNK        -0.1976 
     37 N         -51.5742  -27.4771   13.1241 N.am      10 UNK        -0.4242 
     38 C         -52.8000  -27.0495   13.4635 C.2       10 UNK         0.5072 
     39 O         -53.6840  -27.7969   13.8773 O.2       10 UNK        -0.5224 
     40 CA        -53.0568  -25.5313   13.4049 C.3       9 UNK         0.0343 
     41 CB        -54.2321  -25.0947   14.3041 C.3       9 UNK        -0.2003 
     42 N         -51.8665  -24.7222   13.6966 N.am      9 UNK        -0.4272 
     43 C         -51.0890  -24.7612   14.7921 C.2       9 UNK         0.4988 
     44 O         -51.2973  -25.5207   15.7409 O.2       9 UNK        -0.5108 
     45 CA        -49.8454  -23.8450   14.8317 C.3       8 UNK         0.0248 
     46 CB        -48.5815  -24.6531   15.1765 C.3       8 UNK        -0.2001 
     47 N         -49.6115  -23.1257   13.5754 N.am      8 UNK        -0.4140 
     48 C         -50.1897  -21.9696   13.2222 C.2       8 UNK         0.5028 
     49 O         -50.9190  -21.3140   13.9666 O.2       8 UNK        -0.5428 
     50 CA        -49.9610  -21.4890   11.7750 C.3       7 UNK         0.0264 
     51 CB        -48.7292  -20.5742   11.6914 C.3       7 UNK        -0.1988 
     52 N         -49.8337  -22.5856   10.8051 N.am      7 UNK        -0.4454 
     53 C         -50.8004  -23.4811   10.5455 C.2       7 UNK         0.5027 
     54 O         -51.9118  -23.4393   11.0733 O.2       7 UNK        -0.5083 
     55 CA        -50.4585  -24.6593    9.6043 C.3       6 UNK         0.0844 
     56 C56       -50.5740  -24.2822    8.1058 C.3       14 UNK        -0.0967 
     57 S57       -52.2409  -23.7096    7.6198 S.3       14 UNK        -0.2604 
     58 C58       -52.8929  -25.1196    6.6717 C.3       14 UNK         0.0134 
     59 N         -49.1444  -25.2295    9.9143 N.am      6 UNK        -0.4116 
     60 C         -48.7897  -25.7771   11.0848 C.2       5 UNK         0.5034 
     61 O         -49.5638  -25.9445   12.0235 O.2       5 UNK        -0.5045 
     62 CA        -47.3077  -26.1320   11.2755 C.3       5 UNK         0.0224 
     63 CB        -46.9646  -27.4978   10.6666 C.3       5 UNK        -0.1978 
     64 N         -46.4264  -25.1042   10.7217 N.am      5 UNK        -0.4737 
     65 C         -46.2518  -23.8940   11.2678 C.2       4 UNK         0.5027 
     66 O         -46.7735  -23.5427   12.3254 O.2       4 UNK        -0.5211 
     67 CA        -45.3725  -22.9028   10.4863 C.3       4 UNK         0.0297 
     68 CB        -43.8915  -23.0967   10.8471 C.3       4 UNK        -0.1993 
     69 N         -45.5431  -23.0115    9.0337 N.am      4 UNK        -0.4486 
     70 C         -46.6663  -22.6817    8.3804 C.2       3 UNK         0.4961 
     71 O         -47.6709  -22.2313    8.9304 O.2       3 UNK        -0.5105 
     72 CA        -46.6924  -22.9496    6.8642 C.3       3 UNK         0.0299 
     73 CB        -45.9856  -21.8174    6.1024 C.3       3 UNK        -0.1972 
     74 N         -46.1187  -24.2451    6.4742 N.am      3 UNK        -0.4305 
     75 C         -46.5399  -25.4324    6.9316 C.2       2 UNK         0.5006 
     76 O         -47.4219  -25.5556    7.7827 O.2       2 UNK        -0.5106 
     77 CA        -45.8270  -26.6833    6.3880 C.3       2 UNK         0.0296 
     78 CB        -44.4471  -26.8410    7.0487 C.3       2 UNK        -0.2002 
     79 N         -46.6040  -27.8985    6.6433 N.am      2 UNK        -0.4032 
     80 C         -47.7846  -28.2046    6.0913 C.2       1 UNK         0.5000 
     81 O         -48.2896  -27.5666    5.1651 O.2       1 UNK        -0.5238 
     82 H82       -44.9891  -32.1382    7.3587 H         1 UNK         0.0889 
     83 H83       -46.5118  -32.8840    6.8675 H         1 UNK         0.0889 
     84 H84       -46.1244  -32.7169    8.5809 H         1 UNK         0.0889 
     85 H85       -47.9736  -31.3814    6.1763 H         1 UNK         0.3028 
     86 H86       -49.2859  -29.6802    5.9122 H         1 UNK         0.0864 
     87 H87       -48.6192  -28.8235    8.7656 H         1 UNK         0.0720 
     88 H88       -49.8661  -28.0988    7.8140 H         1 UNK         0.0720 
     89 H89       -52.6353  -30.8427    7.6942 H         1 UNK         0.0814 
     90 H90       -51.6930  -30.0007    6.4982 H         1 UNK         0.0814 
     91 H91       -51.7351  -27.5609    6.3786 H         1 UNK         0.1469 
     92 H92       -54.5661  -25.4546    8.8033 H         1 UNK         0.1381 
     93 H93       -53.7339  -29.6068    9.5530 H         1 UNK         0.1206 
     94 H94       -55.0407  -26.7272   11.1714 H         1 UNK         0.0813 
     95 H95       -56.2591  -27.0789    9.9684 H         1 UNK         0.0813 
     96 H96       -57.9495  -29.6101   11.9107 H         1 UNK         0.0638 
     97 H97       -57.8798  -27.9641   11.3529 H         1 UNK         0.0638 
     98 H98       -56.7828  -27.2643   13.4718 H         1 UNK         0.0568 
     99 H99       -60.2863  -28.3534   15.1886 H         1 UNK         0.3450 
    100 H100      -58.8815  -29.3869   15.2782 H         1 UNK         0.3450 
    101 H101      -56.3209  -30.0096   13.9041 H         1 UNK         0.2987 
    102 H102      -55.6296  -30.0031   17.2629 H         1 UNK         0.0766 
    103 H103      -54.6725  -31.9974   16.1531 H         1 UNK         0.0798 
    104 H104      -54.8064  -31.2495   14.5697 H         1 UNK         0.0798 
    105 H105      -56.2588  -31.6844   15.4781 H         1 UNK         0.0798 
    106 H106      -53.6652  -28.7349   15.5067 H         1 UNK         0.3198 
    107 H107      -51.6558  -27.9904   17.5733 H         1 UNK         0.0843 
    108 H108      -49.4888  -29.2623   17.5923 H         1 UNK         0.0831 
    109 H109      -50.3735  -30.7602   17.3015 H         1 UNK         0.0831 
    110 H110      -50.6236  -29.8620   18.7891 H         1 UNK         0.0831 
    111 H111      -51.2402  -27.6243   15.4565 H         1 UNK         0.3133 
    112 H112      -49.9851  -28.7757   12.9834 H         1 UNK         0.0566 
    113 H113      -51.6247  -29.2735   11.1497 H         1 UNK         0.0814 
    114 H114      -51.2276  -30.7087   12.0778 H         1 UNK         0.0814 
    115 H115      -52.7656  -29.8955   12.3390 H         1 UNK         0.0814 
    116 H116      -50.9007  -26.7844   12.7939 H         1 UNK         0.3091 
    117 H117      -53.3300  -25.3142   12.3719 H         1 UNK         0.0702 
    118 H118      -55.1574  -25.5892   14.0083 H         1 UNK         0.0785 
    119 H119      -54.4050  -24.0206   14.2375 H         1 UNK         0.0785 
    120 H120      -54.0529  -25.3433   15.3508 H         1 UNK         0.0785 
    121 H121      -51.6016  -24.0933   12.9461 H         1 UNK         0.2998 
    122 H122      -50.0087  -23.1184   15.6300 H         1 UNK         0.0697 
    123 H123      -48.3943  -25.4397   14.4454 H         1 UNK         0.0825 
    124 H124      -48.6734  -25.1310   16.1527 H         1 UNK         0.0825 
    125 H125      -47.6990  -24.0140   15.2120 H         1 UNK         0.0825 
    126 H126      -48.9899  -23.5725   12.9119 H         1 UNK         0.3029 
    127 H127      -50.8365  -20.9028   11.4876 H         1 UNK         0.0897 
    128 H128      -48.6011  -20.1716   10.6863 H         1 UNK         0.0792 
    129 H129      -48.8269  -19.7261   12.3704 H         1 UNK         0.0792 
    130 H130      -47.8142  -21.1017   11.9596 H         1 UNK         0.0792 
    131 H131      -48.9645  -22.6322   10.2777 H         1 UNK         0.3086 
    132 H132      -51.1889  -25.4476    9.8010 H         1 UNK         0.0583 
    133 H133      -49.8598  -23.4960    7.8566 H         1 UNK         0.1020 
    134 H134      -50.2960  -25.1377    7.4875 H         1 UNK         0.1020 
    135 H135      -53.8476  -24.8295    6.2310 H         1 UNK         0.0694 
    136 H136      -52.2223  -25.3232    5.8353 H         1 UNK         0.0694 
    137 H137      -48.4472  -25.1926    9.1715 H         1 UNK         0.2989 
    138 H138      -47.1279  -26.1935   12.3513 H         1 UNK         0.1055 
    139 H139      -47.6628  -28.2667   11.0010 H         1 UNK         0.0806 
    140 H140      -45.9656  -27.8207   10.9596 H         1 UNK         0.0806 
    141 H141      -46.9940  -27.4729    9.5786 H         1 UNK         0.0806 
    142 H142      -46.0087  -25.2939    9.8226 H         1 UNK         0.3061 
    143 H143      -45.6666  -21.8943   10.7855 H         1 UNK         0.0734 
    144 H144      -43.2634  -22.3480   10.3642 H         1 UNK         0.0832 
    145 H145      -43.7381  -22.9998   11.9230 H         1 UNK         0.0832 
    146 H146      -43.5273  -24.0823   10.5544 H         1 UNK         0.0832 
    147 H147      -44.7660  -23.3759    8.5022 H         1 UNK         0.3156 
    148 H148      -47.7398  -22.9575    6.5556 H         1 UNK         0.0589 
    149 H149      -44.9187  -21.7804    6.3263 H         1 UNK         0.0808 
    150 H150      -46.0991  -21.9326    5.0243 H         1 UNK         0.0808 
    151 H151      -46.4077  -20.8467    6.3674 H         1 UNK         0.0808 
    152 H152      -45.3805  -24.2247    5.7848 H         1 UNK         0.3098 
    153 H153      -45.7021  -26.5730    5.3090 H         1 UNK         0.0720 
    154 H154      -43.9222  -27.7148    6.6618 H         1 UNK         0.0791 
    155 H155      -44.5288  -26.9549    8.1307 H         1 UNK         0.0791 
    156 H156      -43.8122  -25.9752    6.8570 H         1 UNK         0.0791 
    157 H157      -46.2933  -28.4981    7.4049 H         1 UNK         0.3028 
@<TRIPOS>BOND
     1    1    2 1    
     2    1   82 1    
     3    1   83 1    
     4    1   84 1    
     5    2    3 2    
     6    2    4 am   BACKBONE|DICT|INTERRES
     7    4    5 1    
     8    4   85 1    
     9    5    6 1    
    10    5   80 1    
    11    5   86 1    
    12    6    7 1    
    13    6   87 1    
    14    6   88 1    
    15    7    8 1    
    16    8    9 1    
    17    8   89 1    
    18    8   90 1    
    19    9   10 ar   
    20    9   14 ar   
    21   10   11 ar   
    22   10   91 1    
    23   11   12 ar   
    24   11   58 1    
    25   12   13 ar   
    26   12   92 1    
    27   13   14 ar   
    28   13   15 1    
    29   14   93 1    
    30   15   16 1    
    31   15   94 1    
    32   15   95 1    
    33   16   17 1    
    34   17   18 1    
    35   17   96 1    
    36   17   97 1    
    37   18   19 1    
    38   18   22 1    
    39   18   98 1    
    40   19   20 am   BACKBONE|DICT|INTERRES
    41   19   21 2    
    42   20   99 1    
    43   20  100 1    
    44   22   23 am   BACKBONE|DICT|INTERRES
    45   22  101 1    
    46   23   24 2    
    47   23   25 1    
    48   25   26 1    
    49   25   27 1    
    50   25  102 1    
    51   26  103 1    
    52   26  104 1    
    53   26  105 1    
    54   27   28 am   BACKBONE|DICT|INTERRES
    55   27  106 1    
    56   28   29 2    
    57   28   30 1    
    58   30   31 1    
    59   30   32 1    
    60   30  107 1    
    61   31  108 1    
    62   31  109 1    
    63   31  110 1    
    64   32   33 am   BACKBONE|DICT|INTERRES
    65   32  111 1    
    66   33   34 2    
    67   33   35 1    
    68   35   36 1    
    69   35   37 1    
    70   35  112 1    
    71   36  113 1    
    72   36  114 1    
    73   36  115 1    
    74   37   38 am   BACKBONE|DICT|INTERRES
    75   37  116 1    
    76   38   39 2    
    77   38   40 1    
    78   40   41 1    
    79   40   42 1    
    80   40  117 1    
    81   41  118 1    
    82   41  119 1    
    83   41  120 1    
    84   42   43 am   BACKBONE|DICT|INTERRES
    85   42  121 1    
    86   43   44 2    
    87   43   45 1    
    88   45   46 1    
    89   45   47 1    
    90   45  122 1    
    91   46  123 1    
    92   46  124 1    
    93   46  125 1    
    94   47   48 am   BACKBONE|DICT|INTERRES
    95   47  126 1    
    96   48   49 2    
    97   48   50 1    
    98   50   51 1    
    99   50   52 1    
   100   50  127 1    
   101   51  128 1    
   102   51  129 1    
   103   51  130 1    
   104   52   53 am   BACKBONE|DICT|INTERRES
   105   52  131 1    
   106   53   54 2    
   107   53   55 1    
   108   55   56 1    
   109   55   59 1    
   110   55  132 1    
   111   56   57 1    
   112   56  133 1    
   113   56  134 1    
   114   57   58 1    
   115   58  135 1    
   116   58  136 1    
   117   59   60 am   BACKBONE|DICT|INTERRES
   118   59  137 1    
   119   60   61 2    
   120   60   62 1    
   121   62   63 1    
   122   62   64 1    
   123   62  138 1    
   124   63  139 1    
   125   63  140 1    
   126   63  141 1    
   127   64   65 am   BACKBONE|DICT|INTERRES
   128   64  142 1    
   129   65   66 2    
   130   65   67 1    
   131   67   68 1    
   132   67   69 1    
   133   67  143 1    
   134   68  144 1    
   135   68  145 1    
   136   68  146 1    
   137   69   70 am   BACKBONE|DICT|INTERRES
   138   69  147 1    
   139   70   71 2    
   140   70   72 1    
   141   72   73 1    
   142   72   74 1    
   143   72  148 1    
   144   73  149 1    
   145   73  150 1    
   146   73  151 1    
   147   74   75 am   BACKBONE|DICT|INTERRES
   148   74  152 1    
   149   75   76 2    
   150   75   77 1    
   151   77   78 1    
   152   77   79 1    
   153   77  153 1    
   154   78  154 1    
   155   78  155 1    
   156   78  156 1    
   157   79   80 am   BACKBONE|DICT|INTERRES
   158   79  157 1    
   159   80   81 2    
@<TRIPOS>SUBSTRUCTURE
     1 UNK         1 GROUP             0       ****    0 ROOT    
