@<TRIPOS>MOLECULE
3R207
157   159    1
SMALL
USER_CHARGES


@<TRIPOS>ATOM
      1 CA        -54.4105  -25.7445    7.0089 C.3       0 UNK        -0.1975 
      2 C         -52.9495  -25.7847    6.5854 C.2       0 UNK         0.4852 
      3 O         -52.6136  -25.3076    5.5007 O.2       0 UNK        -0.5216 
      4 N         -52.0798  -26.3330    7.4458 N.am      1 UNK        -0.4461 
      5 CA        -50.6300  -26.5484    7.2803 C.3       1 UNK         0.0864 
      6 C6        -50.2463  -27.4619    6.0879 C.3       14 UNK        -0.0898 
      7 S7        -51.1657  -29.0387    6.0680 S.3       14 UNK        -0.2598 
      8 C8        -50.0479  -30.1633    6.9734 C.3       14 UNK         0.0286 
      9 C9        -50.1148  -30.0538    8.4978 C.ar      14 UNK        -0.0844 
     10 C10       -48.9586  -30.2953    9.2470 C.ar      14 UNK        -0.0881 
     11 C11       -48.9945  -30.2918   10.6449 C.ar      14 UNK        -0.0643 
     12 C12       -50.1996  -30.0350   11.3006 C.ar      14 UNK        -0.0930 
     13 C13       -51.3673  -29.7991   10.5697 C.ar      14 UNK        -0.0827 
     14 C14       -51.3186  -29.8055    9.1711 C.ar      14 UNK        -0.1249 
     15 C15       -52.6798  -29.5506   11.2976 C.3       14 UNK         0.0141 
     16 S16       -53.8367  -30.9352   11.0793 S.3       14 UNK        -0.2313 
     17 C17       -54.9156  -30.7622   12.5393 C.3       14 UNK        -0.0915 
     18 CA        -56.1125  -29.8029   12.3012 C.3       13 UNK         0.0968 
     19 C         -57.2743  -30.0840   13.3009 C.2       13 UNK         0.5732 
     20 N         -57.7167  -29.1378   14.1208 N.am      13 UNK        -0.7310 
     21 O         -57.8037  -31.1929   13.3227 O.2       13 UNK        -0.5035 
     22 N         -55.6755  -28.3984   12.2720 N.am      13 UNK        -0.4233 
     23 C         -56.3145  -27.4170   11.6231 C.2       13 UNK         0.4989 
     24 O         -57.2757  -27.6122   10.8764 O.2       13 UNK        -0.4996 
     25 CA        -55.7995  -25.9764   11.8428 C.3       12 UNK         0.0216 
     26 CB        -56.8724  -24.9117   11.5323 C.3       12 UNK        -0.1964 
     27 N         -55.2212  -25.7349   13.1719 N.am      12 UNK        -0.4276 
     28 C         -55.7923  -25.9439   14.3668 C.2       12 UNK         0.5020 
     29 O         -56.9265  -26.4007   14.5240 O.2       12 UNK        -0.5489 
     30 CA        -54.9217  -25.6105   15.5932 C.3       11 UNK         0.0294 
     31 CB        -55.7821  -25.1511   16.7843 C.3       11 UNK        -0.2019 
     32 N         -54.0209  -26.6768   16.0572 N.am      11 UNK        -0.4493 
     33 C         -53.4078  -27.6585   15.3766 C.2       11 UNK         0.4932 
     34 O         -53.6153  -27.9491   14.1987 O.2       11 UNK        -0.5029 
     35 CA        -52.3124  -28.4057   16.1561 C.3       10 UNK         0.0280 
     36 CB        -51.7548  -29.6191   15.3893 C.3       10 UNK        -0.1976 
     37 N         -51.2120  -27.4861   16.4433 N.am      10 UNK        -0.4242 
     38 C         -51.1662  -26.6323   17.4745 C.2       10 UNK         0.5072 
     39 O         -52.0260  -26.5781   18.3552 O.2       10 UNK        -0.5224 
     40 CA        -50.0004  -25.6348   17.4842 C.3       9 UNK         0.0343 
     41 CB        -48.6562  -26.3424   17.7274 C.3       9 UNK        -0.2003 
     42 N         -49.9526  -24.8955   16.2227 N.am      9 UNK        -0.4272 
     43 C         -50.7041  -23.8202   15.9406 C.2       9 UNK         0.4988 
     44 O         -51.4669  -23.2847   16.7450 O.2       9 UNK        -0.5108 
     45 CA        -50.5898  -23.2439   14.5179 C.3       8 UNK         0.0248 
     46 CB        -49.4526  -22.2127   14.4431 C.3       8 UNK        -0.2001 
     47 N         -50.3757  -24.2929   13.5180 N.am      8 UNK        -0.4140 
     48 C         -51.3418  -25.1288   13.1069 C.2       8 UNK         0.5028 
     49 O         -52.5290  -24.9793   13.3939 O.2       8 UNK        -0.5428 
     50 CA        -50.9499  -26.3338   12.2315 C.3       7 UNK         0.0264 
     51 CB        -51.4372  -26.1186   10.7937 C.3       7 UNK        -0.1988 
     52 N         -49.5175  -26.6415   12.2120 N.am      7 UNK        -0.4454 
     53 C         -48.7984  -27.0468   13.2686 C.2       7 UNK         0.5027 
     54 O         -49.2977  -27.3023   14.3652 O.2       7 UNK        -0.5083 
     55 CA        -47.2605  -27.0803   13.1221 C.3       6 UNK         0.0844 
     56 C56       -46.6974  -28.5254   13.0910 C.3       14 UNK        -0.0967 
     57 S57       -46.5465  -29.2575   11.4215 S.3       14 UNK        -0.2604 
     58 C58       -47.7415  -30.6268   11.4389 C.3       14 UNK         0.0134 
     59 N         -46.7435  -26.2449   12.0291 N.am      6 UNK        -0.4116 
     60 C         -46.9137  -24.9244   11.8933 C.2       5 UNK         0.5034 
     61 O         -47.5100  -24.2357   12.7214 O.2       5 UNK        -0.5045 
     62 CA        -46.4172  -24.2602   10.5981 C.3       5 UNK         0.0224 
     63 CB        -45.1283  -23.4511   10.8410 C.3       5 UNK        -0.1978 
     64 N         -46.2886  -25.1617    9.4410 N.am      5 UNK        -0.4737 
     65 C         -45.3693  -26.1096    9.1988 C.2       4 UNK         0.5027 
     66 O         -44.5026  -26.4455   10.0042 O.2       4 UNK        -0.5211 
     67 CA        -45.4358  -26.8079    7.8270 C.3       4 UNK         0.0297 
     68 CB        -46.3038  -28.0741    7.9055 C.3       4 UNK        -0.1993 
     69 N         -45.9655  -25.9351    6.7771 N.am      4 UNK        -0.4486 
     70 C         -45.3119  -24.8983    6.2297 C.2       3 UNK         0.4961 
     71 O         -44.1402  -24.6125    6.4751 O.2       3 UNK        -0.5105 
     72 CA        -46.1279  -24.0074    5.2840 C.3       3 UNK         0.0299 
     73 CB        -46.2480  -24.6494    3.8881 C.3       3 UNK        -0.1972 
     74 N         -47.4403  -23.7741    5.8817 N.am      3 UNK        -0.4305 
     75 C         -48.3836  -22.9093    5.5070 C.2       2 UNK         0.5006 
     76 O         -48.2861  -22.1628    4.5315 O.2       2 UNK        -0.5106 
     77 CA        -49.6504  -22.8910    6.3914 C.3       2 UNK         0.0296 
     78 CB        -50.7214  -21.9134    5.8726 C.3       2 UNK        -0.2002 
     79 N         -50.2626  -24.2160    6.5518 N.am      2 UNK        -0.4032 
     80 C         -49.7970  -25.2484    7.2677 C.2       1 UNK         0.5000 
     81 O         -48.7356  -25.2088    7.8970 O.2       1 UNK        -0.5238 
     82 H82       -54.5668  -26.1971    7.9880 H         1 UNK         0.0889 
     83 H83       -55.0234  -26.2823    6.2860 H         1 UNK         0.0889 
     84 H84       -54.7601  -24.7133    7.0518 H         1 UNK         0.0889 
     85 H85       -52.4484  -26.6898    8.3145 H         1 UNK         0.3028 
     86 H86       -50.3134  -27.0804    8.1771 H         1 UNK         0.0864 
     87 H87       -49.1761  -27.6768    6.0964 H         1 UNK         0.0720 
     88 H88       -50.4426  -26.9560    5.1409 H         1 UNK         0.0720 
     89 H89       -49.0271  -30.0101    6.6197 H         1 UNK         0.0814 
     90 H90       -50.3102  -31.1869    6.7035 H         1 UNK         0.0814 
     91 H91       -48.0268  -30.5152    8.7440 H         1 UNK         0.1469 
     92 H92       -50.2310  -30.0404   12.3811 H         1 UNK         0.1381 
     93 H93       -52.2297  -29.6457    8.6114 H         1 UNK         0.1206 
     94 H94       -53.1404  -28.6330   10.9309 H         1 UNK         0.0813 
     95 H95       -52.4936  -29.4028   12.3603 H         1 UNK         0.0813 
     96 H96       -54.3316  -30.4537   13.4070 H         1 UNK         0.0638 
     97 H97       -55.2670  -31.7704   12.7662 H         1 UNK         0.0638 
     98 H98       -56.5277  -30.0436   11.3207 H         1 UNK         0.0568 
     99 H99       -58.4743  -29.3546   14.7475 H         1 UNK         0.3450 
    100 H100      -57.3212  -28.2008   14.1235 H         1 UNK         0.3450 
    101 H101      -54.9183  -28.1570   12.9087 H         1 UNK         0.2987 
    102 H102      -54.9846  -25.8405   11.1311 H         1 UNK         0.0766 
    103 H103      -56.4793  -23.9033   11.6618 H         1 UNK         0.0798 
    104 H104      -57.7428  -25.0183   12.1808 H         1 UNK         0.0798 
    105 H105      -57.2208  -24.9906   10.5017 H         1 UNK         0.0798 
    106 H106      -54.2440  -25.4335   13.1834 H         1 UNK         0.3198 
    107 H107      -54.2872  -24.7662   15.3185 H         1 UNK         0.0843 
    108 H108      -56.3844  -25.9683   17.1834 H         1 UNK         0.0831 
    109 H109      -56.4675  -24.3554   16.4888 H         1 UNK         0.0831 
    110 H110      -55.1658  -24.7607   17.5944 H         1 UNK         0.0831 
    111 H111      -53.7020  -26.5657   17.0130 H         1 UNK         0.3133 
    112 H112      -52.7477  -28.7680   17.0898 H         1 UNK         0.0566 
    113 H113      -51.0172  -30.1572   15.9845 H         1 UNK         0.0814 
    114 H114      -52.5480  -30.3247   15.1400 H         1 UNK         0.0814 
    115 H115      -51.2745  -29.3193   14.4580 H         1 UNK         0.0814 
    116 H116      -50.4830  -27.4304   15.7333 H         1 UNK         0.3091 
    117 H117      -50.1623  -24.9326   18.3052 H         1 UNK         0.0702 
    118 H118      -47.8393  -25.6235   17.7932 H         1 UNK         0.0785 
    119 H119      -48.4127  -27.0510   16.9350 H         1 UNK         0.0785 
    120 H120      -48.6742  -26.8976   18.6662 H         1 UNK         0.0785 
    121 H121      -49.3908  -25.2984   15.4859 H         1 UNK         0.2998 
    122 H122      -51.5259  -22.7303   14.2876 H         1 UNK         0.0697 
    123 H123      -49.6288  -21.3889   15.1360 H         1 UNK         0.0825 
    124 H124      -49.3692  -21.7846   13.4440 H         1 UNK         0.0825 
    125 H125      -48.4881  -22.6525   14.7000 H         1 UNK         0.0825 
    126 H126      -49.4217  -24.4276   13.1964 H         1 UNK         0.3029 
    127 H127      -51.4675  -27.2000   12.6469 H         1 UNK         0.0897 
    128 H128      -52.5039  -25.8933   10.7681 H         1 UNK         0.0792 
    129 H129      -51.2833  -27.0182   10.2035 H         1 UNK         0.0792 
    130 H130      -50.9147  -25.2935   10.3078 H         1 UNK         0.0792 
    131 H131      -49.0269  -26.4658   11.3477 H         1 UNK         0.3086 
    132 H132      -46.8883  -26.6230   14.0415 H         1 UNK         0.0583 
    133 H133      -45.6882  -28.5084   13.5056 H         1 UNK         0.1020 
    134 H134      -47.2561  -29.1859   13.7569 H         1 UNK         0.1020 
    135 H135      -47.2664  -31.5022   10.9939 H         1 UNK         0.0694 
    136 H136      -47.9898  -30.9126   12.4616 H         1 UNK         0.0694 
    137 H137      -46.2063  -26.7273   11.3184 H         1 UNK         0.2989 
    138 H138      -47.1955  -23.5479   10.3182 H         1 UNK         0.1055 
    139 H139      -45.2851  -22.6940   11.6107 H         1 UNK         0.0806 
    140 H140      -44.8093  -22.9326    9.9368 H         1 UNK         0.0806 
    141 H141      -44.3046  -24.0824   11.1751 H         1 UNK         0.0806 
    142 H142      -47.0389  -25.0743    8.7609 H         1 UNK         0.3061 
    143 H143      -44.4209  -27.1012    7.5496 H         1 UNK         0.0734 
    144 H144      -46.3789  -28.5693    6.9374 H         1 UNK         0.0832 
    145 H145      -45.8689  -28.7949    8.5980 H         1 UNK         0.0832 
    146 H146      -47.3148  -27.8546    8.2525 H         1 UNK         0.0832 
    147 H147      -46.9162  -26.1134    6.4904 H         1 UNK         0.3156 
    148 H148      -45.6156  -23.0475    5.1935 H         1 UNK         0.0589 
    149 H149      -46.8126  -25.5819    3.9172 H         1 UNK         0.0808 
    150 H150      -46.7425  -23.9824    3.1820 H         1 UNK         0.0808 
    151 H151      -45.2628  -24.8755    3.4778 H         1 UNK         0.0808 
    152 H152      -47.6463  -24.3070    6.7223 H         1 UNK         0.3098 
    153 H153      -49.3389  -22.5446    7.3791 H         1 UNK         0.0720 
    154 H154      -51.5767  -21.8677    6.5472 H         1 UNK         0.0791 
    155 H155      -51.0875  -22.2046    4.8871 H         1 UNK         0.0791 
    156 H156      -50.3232  -20.9013    5.7891 H         1 UNK         0.0791 
    157 H157      -51.1250  -24.3845    6.0365 H         1 UNK         0.3028 
@<TRIPOS>BOND
     1    1    2 1    
     2    1   82 1    
     3    1   83 1    
     4    1   84 1    
     5    2    3 2    
     6    2    4 am   BACKBONE|DICT|INTERRES
     7    4    5 1    
     8    4   85 1    
     9    5    6 1    
    10    5   80 1    
    11    5   86 1    
    12    6    7 1    
    13    6   87 1    
    14    6   88 1    
    15    7    8 1    
    16    8    9 1    
    17    8   89 1    
    18    8   90 1    
    19    9   10 ar   
    20    9   14 ar   
    21   10   11 ar   
    22   10   91 1    
    23   11   12 ar   
    24   11   58 1    
    25   12   13 ar   
    26   12   92 1    
    27   13   14 ar   
    28   13   15 1    
    29   14   93 1    
    30   15   16 1    
    31   15   94 1    
    32   15   95 1    
    33   16   17 1    
    34   17   18 1    
    35   17   96 1    
    36   17   97 1    
    37   18   19 1    
    38   18   22 1    
    39   18   98 1    
    40   19   20 am   BACKBONE|DICT|INTERRES
    41   19   21 2    
    42   20   99 1    
    43   20  100 1    
    44   22   23 am   BACKBONE|DICT|INTERRES
    45   22  101 1    
    46   23   24 2    
    47   23   25 1    
    48   25   26 1    
    49   25   27 1    
    50   25  102 1    
    51   26  103 1    
    52   26  104 1    
    53   26  105 1    
    54   27   28 am   BACKBONE|DICT|INTERRES
    55   27  106 1    
    56   28   29 2    
    57   28   30 1    
    58   30   31 1    
    59   30   32 1    
    60   30  107 1    
    61   31  108 1    
    62   31  109 1    
    63   31  110 1    
    64   32   33 am   BACKBONE|DICT|INTERRES
    65   32  111 1    
    66   33   34 2    
    67   33   35 1    
    68   35   36 1    
    69   35   37 1    
    70   35  112 1    
    71   36  113 1    
    72   36  114 1    
    73   36  115 1    
    74   37   38 am   BACKBONE|DICT|INTERRES
    75   37  116 1    
    76   38   39 2    
    77   38   40 1    
    78   40   41 1    
    79   40   42 1    
    80   40  117 1    
    81   41  118 1    
    82   41  119 1    
    83   41  120 1    
    84   42   43 am   BACKBONE|DICT|INTERRES
    85   42  121 1    
    86   43   44 2    
    87   43   45 1    
    88   45   46 1    
    89   45   47 1    
    90   45  122 1    
    91   46  123 1    
    92   46  124 1    
    93   46  125 1    
    94   47   48 am   BACKBONE|DICT|INTERRES
    95   47  126 1    
    96   48   49 2    
    97   48   50 1    
    98   50   51 1    
    99   50   52 1    
   100   50  127 1    
   101   51  128 1    
   102   51  129 1    
   103   51  130 1    
   104   52   53 am   BACKBONE|DICT|INTERRES
   105   52  131 1    
   106   53   54 2    
   107   53   55 1    
   108   55   56 1    
   109   55   59 1    
   110   55  132 1    
   111   56   57 1    
   112   56  133 1    
   113   56  134 1    
   114   57   58 1    
   115   58  135 1    
   116   58  136 1    
   117   59   60 am   BACKBONE|DICT|INTERRES
   118   59  137 1    
   119   60   61 2    
   120   60   62 1    
   121   62   63 1    
   122   62   64 1    
   123   62  138 1    
   124   63  139 1    
   125   63  140 1    
   126   63  141 1    
   127   64   65 am   BACKBONE|DICT|INTERRES
   128   64  142 1    
   129   65   66 2    
   130   65   67 1    
   131   67   68 1    
   132   67   69 1    
   133   67  143 1    
   134   68  144 1    
   135   68  145 1    
   136   68  146 1    
   137   69   70 am   BACKBONE|DICT|INTERRES
   138   69  147 1    
   139   70   71 2    
   140   70   72 1    
   141   72   73 1    
   142   72   74 1    
   143   72  148 1    
   144   73  149 1    
   145   73  150 1    
   146   73  151 1    
   147   74   75 am   BACKBONE|DICT|INTERRES
   148   74  152 1    
   149   75   76 2    
   150   75   77 1    
   151   77   78 1    
   152   77   79 1    
   153   77  153 1    
   154   78  154 1    
   155   78  155 1    
   156   78  156 1    
   157   79   80 am   BACKBONE|DICT|INTERRES
   158   79  157 1    
   159   80   81 2    
@<TRIPOS>SUBSTRUCTURE
     1 UNK         1 GROUP             0       ****    0 ROOT    
