@<TRIPOS>MOLECULE
3R207
157   159    1
SMALL
USER_CHARGES


@<TRIPOS>ATOM
      1 CA        -50.3167  -26.9585    0.4947 C.3       0 UNK        -0.1975 
      2 C         -50.7545  -26.1626    1.7152 C.2       0 UNK         0.4852 
      3 O         -50.7033  -24.9324    1.6936 O.2       0 UNK        -0.5216 
      4 N         -51.1865  -26.8563    2.7769 N.am      1 UNK        -0.4461 
      5 CA        -51.6240  -26.2770    4.0539 C.3       1 UNK         0.0864 
      6 C6        -52.3970  -27.2961    4.9343 C.3       14 UNK        -0.0898 
      7 S7        -51.6767  -28.9777    4.9818 S.3       14 UNK        -0.2598 
      8 C8        -50.7128  -28.9669    6.5248 C.3       14 UNK         0.0286 
      9 C9        -51.5880  -28.8806    7.7667 C.ar      14 UNK        -0.0844 
     10 C10       -51.6306  -27.7057    8.5211 C.ar      14 UNK        -0.0881 
     11 C11       -52.4237  -27.6226    9.6727 C.ar      14 UNK        -0.0643 
     12 C12       -53.1868  -28.7319   10.0523 C.ar      14 UNK        -0.0930 
     13 C13       -53.1535  -29.9197    9.3070 C.ar      14 UNK        -0.0827 
     14 C14       -52.3446  -29.9825    8.1691 C.ar      14 UNK        -0.1249 
     15 C15       -54.0078  -31.1405    9.6539 C.3       14 UNK         0.0141 
     16 S16       -54.5491  -31.2581   11.3908 S.3       14 UNK        -0.2313 
     17 C17       -52.9624  -31.5850   12.2280 C.3       14 UNK        -0.0915 
     18 CA        -53.1527  -31.8638   13.7474 C.3       13 UNK         0.0968 
     19 C         -51.8496  -32.3403   14.4559 C.2       13 UNK         0.5732 
     20 N         -51.7033  -32.1288   15.7582 N.am      13 UNK        -0.7310 
     21 O         -50.9807  -32.9507   13.8374 O.2       13 UNK        -0.5035 
     22 N         -53.8748  -30.7868   14.4515 N.am      13 UNK        -0.4233 
     23 C         -53.4750  -29.5143   14.5703 C.2       13 UNK         0.4989 
     24 O         -52.4037  -29.0843   14.1407 O.2       13 UNK        -0.4996 
     25 CA        -54.4415  -28.5881   15.3310 C.3       12 UNK         0.0216 
     26 CB        -53.9521  -28.3099   16.7666 C.3       12 UNK        -0.1964 
     27 N         -54.7552  -27.3438   14.6163 N.am      12 UNK        -0.4276 
     28 C         -53.9572  -26.2978   14.3625 C.2       12 UNK         0.5020 
     29 O         -52.7697  -26.2213   14.6836 O.2       12 UNK        -0.5489 
     30 CA        -54.6266  -25.1051   13.6677 C.3       11 UNK         0.0294 
     31 CB        -55.6639  -24.4350   14.5918 C.3       11 UNK        -0.2019 
     32 N         -53.6083  -24.1281   13.2929 N.am      11 UNK        -0.4493 
     33 C         -53.7429  -23.1876   12.3500 C.2       11 UNK         0.4932 
     34 O         -54.7536  -23.0655   11.6554 O.2       11 UNK        -0.5029 
     35 CA        -52.5531  -22.2251   12.1483 C.3       10 UNK         0.0280 
     36 CB        -52.9452  -20.9291   11.4070 C.3       10 UNK        -0.1976 
     37 N         -51.8344  -21.9205   13.3915 N.am      10 UNK        -0.4242 
     38 C         -52.3103  -21.3145   14.4890 C.2       10 UNK         0.5072 
     39 O         -53.4619  -20.8923   14.6101 O.2       10 UNK        -0.5224 
     40 CA        -51.3213  -21.1893   15.6651 C.3       9 UNK         0.0343 
     41 CB        -51.5941  -19.9357   16.5164 C.3       9 UNK        -0.2003 
     42 N         -51.3496  -22.3691   16.5339 N.am      9 UNK        -0.4272 
     43 C         -50.9729  -23.6045   16.1778 C.2       9 UNK         0.4988 
     44 O         -50.5203  -23.8792   15.0630 O.2       9 UNK        -0.5108 
     45 CA        -51.1164  -24.6996   17.2482 C.3       8 UNK         0.0248 
     46 CB        -52.5535  -24.7800   17.7991 C.3       8 UNK        -0.2001 
     47 N         -50.7686  -25.9900   16.6580 N.am      8 UNK        -0.4140 
     48 C         -49.7526  -26.7760   17.0297 C.2       8 UNK         0.5028 
     49 O         -49.0360  -26.5543   18.0077 O.2       8 UNK        -0.5428 
     50 CA        -49.4702  -28.0197   16.1693 C.3       7 UNK         0.0264 
     51 CB        -50.1041  -29.2753   16.7841 C.3       7 UNK        -0.1988 
     52 N         -49.9152  -27.8695   14.7798 N.am      7 UNK        -0.4454 
     53 C         -49.1950  -27.2448   13.8400 C.2       7 UNK         0.5027 
     54 O         -48.0784  -26.7623   14.0495 O.2       7 UNK        -0.5083 
     55 CA        -49.8147  -27.1236   12.4333 C.3       6 UNK         0.0844 
     56 C56       -50.3502  -25.6886   12.2110 C.3       14 UNK        -0.0967 
     57 S57       -50.9819  -25.3608   10.5326 S.3       14 UNK        -0.2604 
     58 C58       -52.5260  -26.3304   10.4828 C.3       14 UNK         0.0134 
     59 N         -48.8289  -27.5048   11.4210 N.am      6 UNK        -0.4116 
     60 C         -48.4074  -28.7563   11.1961 C.2       5 UNK         0.5034 
     61 O         -48.8243  -29.7391   11.8099 O.2       5 UNK        -0.5045 
     62 CA        -47.3499  -28.9665   10.0977 C.3       5 UNK         0.0224 
     63 CB        -47.9978  -29.5575    8.8384 C.3       5 UNK        -0.1978 
     64 N         -46.6468  -27.7340    9.7334 N.am      5 UNK        -0.4737 
     65 C         -45.5824  -27.2570   10.3945 C.2       4 UNK         0.5027 
     66 O         -45.0627  -27.8326   11.3506 O.2       4 UNK        -0.5211 
     67 CA        -44.9817  -25.9218    9.9137 C.3       4 UNK         0.0297 
     68 CB        -43.7428  -26.1771    9.0399 C.3       4 UNK        -0.1993 
     69 N         -45.9233  -25.0795    9.1723 N.am      4 UNK        -0.4486 
     70 C         -47.0222  -24.5148    9.6911 C.2       3 UNK         0.4961 
     71 O         -47.3392  -24.6050   10.8759 O.2       3 UNK        -0.5105 
     72 CA        -47.9352  -23.7393    8.7241 C.3       3 UNK         0.0299 
     73 CB        -47.6561  -22.2308    8.8188 C.3       3 UNK        -0.1972 
     74 N         -47.8448  -24.1631    7.3212 N.am      3 UNK        -0.4305 
     75 C         -48.1336  -25.3885    6.8601 C.2       2 UNK         0.5006 
     76 O         -48.4200  -26.3475    7.5790 O.2       2 UNK        -0.5106 
     77 CA        -48.0352  -25.5841    5.3369 C.3       2 UNK         0.0296 
     78 CB        -46.8584  -26.5129    4.9944 C.3       2 UNK        -0.2002 
     79 N         -49.2617  -26.1239    4.7424 N.am      2 UNK        -0.4032 
     80 C         -50.4858  -25.5792    4.8306 C.2       1 UNK         0.5000 
     81 O         -50.7363  -24.5460    5.4542 O.2       1 UNK        -0.5238 
     82 H82       -50.4183  -28.0325    0.6499 H         1 UNK         0.0889 
     83 H83       -49.2731  -26.7466    0.2634 H         1 UNK         0.0889 
     84 H84       -50.9205  -26.6824   -0.3693 H         1 UNK         0.0889 
     85 H85       -51.2176  -27.8662    2.7370 H         1 UNK         0.3028 
     86 H86       -52.3309  -25.4823    3.8039 H         1 UNK         0.0864 
     87 H87       -52.5464  -26.9166    5.9463 H         1 UNK         0.0720 
     88 H88       -53.4033  -27.4082    4.5281 H         1 UNK         0.0720 
     89 H89       -49.9962  -28.1476    6.4970 H         1 UNK         0.0814 
     90 H90       -50.1217  -29.8826    6.5700 H         1 UNK         0.0814 
     91 H91       -51.0467  -26.8528    8.2027 H         1 UNK         0.1469 
     92 H92       -53.8188  -28.6576   10.9258 H         1 UNK         0.1381 
     93 H93       -52.3154  -30.8884    7.5787 H         1 UNK         0.1206 
     94 H94       -54.8963  -31.1225    9.0217 H         1 UNK         0.0813 
     95 H95       -53.4696  -32.0552    9.4000 H         1 UNK         0.0813 
     96 H96       -52.2886  -30.7419   12.0672 H         1 UNK         0.0638 
     97 H97       -52.5006  -32.4432   11.7369 H         1 UNK         0.0638 
     98 H98       -53.8105  -32.7306   13.8190 H         1 UNK         0.0568 
     99 H99       -50.8710  -32.4600   16.2184 H         1 UNK         0.3450 
    100 H100      -52.4195  -31.6563   16.2840 H         1 UNK         0.3450 
    101 H101      -54.7585  -31.0590   14.8564 H         1 UNK         0.2987 
    102 H102      -55.3963  -29.1096   15.4178 H         1 UNK         0.0766 
    103 H103      -54.6812  -27.7235   17.3255 H         1 UNK         0.0798 
    104 H104      -53.0104  -27.7632   16.7799 H         1 UNK         0.0798 
    105 H105      -53.7951  -29.2394   17.3147 H         1 UNK         0.0798 
    106 H106      -55.7057  -27.2874   14.2776 H         1 UNK         0.3198 
    107 H107      -55.1176  -25.4736   12.7643 H         1 UNK         0.0843 
    108 H108      -56.1575  -23.5990   14.0960 H         1 UNK         0.0831 
    109 H109      -55.1998  -24.0519   15.5015 H         1 UNK         0.0831 
    110 H110      -56.4463  -25.1326   14.8921 H         1 UNK         0.0831 
    111 H111      -52.7354  -24.2222   13.8003 H         1 UNK         0.3133 
    112 H112      -51.8407  -22.7532   11.5153 H         1 UNK         0.0566 
    113 H113      -52.0837  -20.2768   11.2642 H         1 UNK         0.0814 
    114 H114      -53.3481  -21.1512   10.4181 H         1 UNK         0.0814 
    115 H115      -53.7066  -20.3672   11.9488 H         1 UNK         0.0814 
    116 H116      -50.9041  -22.3151   13.4625 H         1 UNK         0.3091 
    117 H117      -50.3142  -21.0948   15.2529 H         1 UNK         0.0702 
    118 H118      -50.8321  -19.8041   17.2849 H         1 UNK         0.0785 
    119 H119      -52.5651  -19.9836   17.0112 H         1 UNK         0.0785 
    120 H120      -51.5878  -19.0368   15.8983 H         1 UNK         0.0785 
    121 H121      -51.7228  -22.2287   17.4612 H         1 UNK         0.2998 
    122 H122      -50.4358  -24.4539   18.0655 H         1 UNK         0.0697 
    123 H123      -53.2865  -24.9075   17.0026 H         1 UNK         0.0825 
    124 H124      -52.8232  -23.8795   18.3511 H         1 UNK         0.0825 
    125 H125      -52.6643  -25.6187   18.4866 H         1 UNK         0.0825 
    126 H126      -51.2951  -26.2201   15.8154 H         1 UNK         0.3029 
    127 H127      -48.3881  -28.1693   16.1760 H         1 UNK         0.0897 
    128 H128      -49.7827  -30.1697   16.2513 H         1 UNK         0.0792 
    129 H129      -49.8074  -29.3956   17.8269 H         1 UNK         0.0792 
    130 H130      -51.1915  -29.2397   16.7545 H         1 UNK         0.0792 
    131 H131      -50.8380  -28.2364   14.5417 H         1 UNK         0.3086 
    132 H132      -50.6556  -27.8169   12.3588 H         1 UNK         0.0583 
    133 H133      -49.5636  -24.9568   12.4075 H         1 UNK         0.1020 
    134 H134      -51.1381  -25.4640   12.9264 H         1 UNK         0.1020 
    135 H135      -52.8476  -26.5463   11.5023 H         1 UNK         0.0694 
    136 H136      -53.3056  -25.7101   10.0393 H         1 UNK         0.0694 
    137 H137      -48.4047  -26.7434   10.9098 H         1 UNK         0.2989 
    138 H138      -46.6284  -29.6934   10.4781 H         1 UNK         0.1055 
    139 H139      -48.5171  -30.4905    9.0616 H         1 UNK         0.0806 
    140 H140      -47.2571  -29.7699    8.0675 H         1 UNK         0.0806 
    141 H141      -48.7297  -28.8680    8.4233 H         1 UNK         0.0806 
    142 H142      -47.0410  -27.1951    8.9687 H         1 UNK         0.3061 
    143 H143      -44.6678  -25.3688   10.8016 H         1 UNK         0.0734 
    144 H144      -43.0059  -26.7779    9.5750 H         1 UNK         0.0832 
    145 H145      -43.9972  -26.7141    8.1251 H         1 UNK         0.0832 
    146 H146      -43.2535  -25.2442    8.7594 H         1 UNK         0.0832 
    147 H147      -45.7431  -24.9487    8.1879 H         1 UNK         0.3156 
    148 H148      -48.9636  -23.9102    9.0436 H         1 UNK         0.0589 
    149 H149      -46.6496  -21.9834    8.4791 H         1 UNK         0.0808 
    150 H150      -48.3653  -21.6567    8.2220 H         1 UNK         0.0808 
    151 H151      -47.7476  -21.8818    9.8485 H         1 UNK         0.0808 
    152 H152      -47.6100  -23.4426    6.6532 H         1 UNK         0.3098 
    153 H153      -47.8524  -24.6151    4.8681 H         1 UNK         0.0720 
    154 H154      -46.7251  -26.6063    3.9164 H         1 UNK         0.0791 
    155 H155      -47.0033  -27.5139    5.4037 H         1 UNK         0.0791 
    156 H156      -45.9229  -26.1273    5.4022 H         1 UNK         0.0791 
    157 H157      -49.1664  -26.9751    4.2090 H         1 UNK         0.3028 
@<TRIPOS>BOND
     1    1    2 1    
     2    1   82 1    
     3    1   83 1    
     4    1   84 1    
     5    2    3 2    
     6    2    4 am   BACKBONE|DICT|INTERRES
     7    4    5 1    
     8    4   85 1    
     9    5    6 1    
    10    5   80 1    
    11    5   86 1    
    12    6    7 1    
    13    6   87 1    
    14    6   88 1    
    15    7    8 1    
    16    8    9 1    
    17    8   89 1    
    18    8   90 1    
    19    9   10 ar   
    20    9   14 ar   
    21   10   11 ar   
    22   10   91 1    
    23   11   12 ar   
    24   11   58 1    
    25   12   13 ar   
    26   12   92 1    
    27   13   14 ar   
    28   13   15 1    
    29   14   93 1    
    30   15   16 1    
    31   15   94 1    
    32   15   95 1    
    33   16   17 1    
    34   17   18 1    
    35   17   96 1    
    36   17   97 1    
    37   18   19 1    
    38   18   22 1    
    39   18   98 1    
    40   19   20 am   BACKBONE|DICT|INTERRES
    41   19   21 2    
    42   20   99 1    
    43   20  100 1    
    44   22   23 am   BACKBONE|DICT|INTERRES
    45   22  101 1    
    46   23   24 2    
    47   23   25 1    
    48   25   26 1    
    49   25   27 1    
    50   25  102 1    
    51   26  103 1    
    52   26  104 1    
    53   26  105 1    
    54   27   28 am   BACKBONE|DICT|INTERRES
    55   27  106 1    
    56   28   29 2    
    57   28   30 1    
    58   30   31 1    
    59   30   32 1    
    60   30  107 1    
    61   31  108 1    
    62   31  109 1    
    63   31  110 1    
    64   32   33 am   BACKBONE|DICT|INTERRES
    65   32  111 1    
    66   33   34 2    
    67   33   35 1    
    68   35   36 1    
    69   35   37 1    
    70   35  112 1    
    71   36  113 1    
    72   36  114 1    
    73   36  115 1    
    74   37   38 am   BACKBONE|DICT|INTERRES
    75   37  116 1    
    76   38   39 2    
    77   38   40 1    
    78   40   41 1    
    79   40   42 1    
    80   40  117 1    
    81   41  118 1    
    82   41  119 1    
    83   41  120 1    
    84   42   43 am   BACKBONE|DICT|INTERRES
    85   42  121 1    
    86   43   44 2    
    87   43   45 1    
    88   45   46 1    
    89   45   47 1    
    90   45  122 1    
    91   46  123 1    
    92   46  124 1    
    93   46  125 1    
    94   47   48 am   BACKBONE|DICT|INTERRES
    95   47  126 1    
    96   48   49 2    
    97   48   50 1    
    98   50   51 1    
    99   50   52 1    
   100   50  127 1    
   101   51  128 1    
   102   51  129 1    
   103   51  130 1    
   104   52   53 am   BACKBONE|DICT|INTERRES
   105   52  131 1    
   106   53   54 2    
   107   53   55 1    
   108   55   56 1    
   109   55   59 1    
   110   55  132 1    
   111   56   57 1    
   112   56  133 1    
   113   56  134 1    
   114   57   58 1    
   115   58  135 1    
   116   58  136 1    
   117   59   60 am   BACKBONE|DICT|INTERRES
   118   59  137 1    
   119   60   61 2    
   120   60   62 1    
   121   62   63 1    
   122   62   64 1    
   123   62  138 1    
   124   63  139 1    
   125   63  140 1    
   126   63  141 1    
   127   64   65 am   BACKBONE|DICT|INTERRES
   128   64  142 1    
   129   65   66 2    
   130   65   67 1    
   131   67   68 1    
   132   67   69 1    
   133   67  143 1    
   134   68  144 1    
   135   68  145 1    
   136   68  146 1    
   137   69   70 am   BACKBONE|DICT|INTERRES
   138   69  147 1    
   139   70   71 2    
   140   70   72 1    
   141   72   73 1    
   142   72   74 1    
   143   72  148 1    
   144   73  149 1    
   145   73  150 1    
   146   73  151 1    
   147   74   75 am   BACKBONE|DICT|INTERRES
   148   74  152 1    
   149   75   76 2    
   150   75   77 1    
   151   77   78 1    
   152   77   79 1    
   153   77  153 1    
   154   78  154 1    
   155   78  155 1    
   156   78  156 1    
   157   79   80 am   BACKBONE|DICT|INTERRES
   158   79  157 1    
   159   80   81 2    
@<TRIPOS>SUBSTRUCTURE
     1 UNK         1 GROUP             0       ****    0 ROOT    
