@<TRIPOS>MOLECULE
3R207
157   159    1
SMALL
USER_CHARGES


@<TRIPOS>ATOM
      1 CA        -51.6807  -30.7949    9.9539 C.3       0 UNK        -0.1975 
      2 C         -50.5674  -30.7562    8.9164 C.2       0 UNK         0.4852 
      3 O         -49.7324  -31.6600    8.8786 O.2       0 UNK        -0.5216 
      4 N         -50.5560  -29.7170    8.0702 N.am      1 UNK        -0.4461 
      5 CA        -49.5615  -29.4769    7.0139 C.3       1 UNK         0.0864 
      6 C6        -50.0043  -28.3529    6.0367 C.3       14 UNK        -0.0898 
      7 S7        -50.6947  -26.8725    6.8644 S.3       14 UNK        -0.2598 
      8 C8        -52.4492  -27.0135    6.3960 C.3       14 UNK         0.0286 
      9 C9        -53.3499  -26.2687    7.3682 C.ar      14 UNK        -0.0844 
     10 C10       -53.5470  -24.8931    7.2359 C.ar      14 UNK        -0.0881 
     11 C11       -54.3907  -24.2096    8.1164 C.ar      14 UNK        -0.0643 
     12 C12       -55.0341  -24.9141    9.1396 C.ar      14 UNK        -0.0930 
     13 C13       -54.8576  -26.2952    9.2811 C.ar      14 UNK        -0.0827 
     14 C14       -54.0141  -26.9636    8.3825 C.ar      14 UNK        -0.1249 
     15 C15       -55.6388  -27.0308   10.3740 C.3       14 UNK         0.0141 
     16 S16       -54.9170  -28.6268   10.8847 S.3       14 UNK        -0.2313 
     17 C17       -56.1664  -29.2680   12.0521 C.3       14 UNK        -0.0915 
     18 CA        -55.5628  -30.0621   13.2477 C.3       13 UNK         0.0968 
     19 C         -56.7092  -30.6569   14.1139 C.2       13 UNK         0.5732 
     20 N         -56.9179  -31.9682   14.1225 N.am      13 UNK        -0.7310 
     21 O         -57.4158  -29.9170   14.7923 O.2       13 UNK        -0.5035 
     22 N         -54.5529  -31.0319   12.7871 N.am      13 UNK        -0.4233 
     23 C         -53.6347  -31.7231   13.4792 C.2       13 UNK         0.4989 
     24 O         -52.8420  -32.4555   12.8878 O.2       13 UNK        -0.4996 
     25 CA        -53.5356  -31.6154   15.0173 C.3       12 UNK         0.0216 
     26 CB        -52.5968  -32.6963   15.6064 C.3       12 UNK        -0.1964 
     27 N         -53.0917  -30.2812   15.4290 N.am      12 UNK        -0.4276 
     28 C         -53.1702  -29.8108   16.6853 C.2       12 UNK         0.5020 
     29 O         -53.6517  -30.4489   17.6229 O.2       12 UNK        -0.5489 
     30 CA        -52.6287  -28.3953   16.9689 C.3       11 UNK         0.0294 
     31 CB        -51.1498  -28.4595   17.3820 C.3       11 UNK        -0.2019 
     32 N         -52.7728  -27.4857   15.8352 N.am      11 UNK        -0.4493 
     33 C         -53.9476  -27.0683   15.3448 C.2       11 UNK         0.4932 
     34 O         -55.0250  -27.2715   15.9046 O.2       11 UNK        -0.5029 
     35 CA        -53.9441  -26.3353   13.9898 C.3       10 UNK         0.0280 
     36 CB        -54.3880  -24.8741   14.1624 C.3       10 UNK        -0.1976 
     37 N         -52.6814  -26.3795   13.2390 N.am      10 UNK        -0.4242 
     38 C         -52.0538  -27.4923   12.8227 C.2       10 UNK         0.5072 
     39 O         -52.4083  -28.6351   13.1121 O.2       10 UNK        -0.5224 
     40 CA        -50.7787  -27.3062   11.9907 C.3       9 UNK         0.0343 
     41 CB        -51.1357  -27.0218   10.5254 C.3       9 UNK        -0.2003 
     42 N         -49.8940  -26.2564   12.4985 N.am      9 UNK        -0.4272 
     43 C         -49.3224  -26.2545   13.7129 C.2       9 UNK         0.4988 
     44 O         -49.5230  -27.1197   14.5657 O.2       9 UNK        -0.5108 
     45 CA        -48.3702  -25.0966   14.0402 C.3       8 UNK         0.0248 
     46 CB        -46.9589  -25.3771   13.5038 C.3       8 UNK        -0.2001 
     47 N         -48.8601  -23.8320   13.4924 N.am      8 UNK        -0.4140 
     48 C         -49.4784  -22.8896   14.2157 C.2       8 UNK         0.5028 
     49 O         -49.6254  -22.9423   15.4377 O.2       8 UNK        -0.5428 
     50 CA        -50.0393  -21.6766   13.4531 C.3       7 UNK         0.0264 
     51 CB        -48.9992  -20.5451   13.4117 C.3       7 UNK        -0.1988 
     52 N         -50.4830  -21.9676   12.0870 N.am      7 UNK        -0.4454 
     53 C         -51.4379  -22.8464   11.7459 C.2       7 UNK         0.5027 
     54 O         -52.0257  -23.5753   12.5440 O.2       7 UNK        -0.5083 
     55 CA        -51.7679  -22.9500   10.2455 C.3       6 UNK         0.0844 
     56 C56       -52.7655  -21.8284    9.8552 C.3       14 UNK        -0.0967 
     57 S57       -53.1116  -21.7390    8.0652 S.3       14 UNK        -0.2604 
     58 C58       -54.6392  -22.7188    7.9311 C.3       14 UNK         0.0134 
     59 N         -50.5902  -22.9786    9.3696 N.am      6 UNK        -0.4116 
     60 C         -49.4734  -23.7073    9.5056 C.2       5 UNK         0.5034 
     61 O         -49.2058  -24.3920   10.4979 O.2       5 UNK        -0.5045 
     62 CA        -48.4871  -23.6848    8.3232 C.3       5 UNK         0.0224 
     63 CB        -48.7349  -22.5538    7.2978 C.3       5 UNK        -0.1978 
     64 N         -47.0937  -23.6832    8.7755 N.am      5 UNK        -0.4737 
     65 C         -46.4786  -22.7538    9.5231 C.2       4 UNK         0.5027 
     66 O         -47.0238  -21.7169    9.9046 O.2       4 UNK        -0.5211 
     67 CA        -45.0137  -23.0192    9.9289 C.3       4 UNK         0.0297 
     68 CB        -44.8017  -22.7880   11.4352 C.3       4 UNK        -0.1993 
     69 N         -44.5639  -24.3727    9.5840 N.am      4 UNK        -0.4486 
     70 C         -43.9752  -24.7143    8.4296 C.2       3 UNK         0.4961 
     71 O         -43.6743  -23.9093    7.5481 O.2       3 UNK        -0.5105 
     72 CA        -43.6952  -26.2131    8.2058 C.3       3 UNK         0.0299 
     73 CB        -42.2711  -26.5655    8.6654 C.3       3 UNK        -0.1972 
     74 N         -44.6541  -27.1169    8.8566 N.am      3 UNK        -0.4305 
     75 C         -45.9670  -27.1681    8.5898 C.2       2 UNK         0.5006 
     76 O         -46.5344  -26.4055    7.8053 O.2       2 UNK        -0.5106 
     77 CA        -46.7819  -28.2080    9.3798 C.3       2 UNK         0.0296 
     78 CB        -47.1136  -27.6704   10.7791 C.3       2 UNK        -0.2002 
     79 N         -48.0355  -28.5653    8.7142 N.am      2 UNK        -0.4032 
     80 C         -48.1359  -29.2295    7.5548 C.2       1 UNK         0.5000 
     81 O         -47.1676  -29.6638    6.9264 O.2       1 UNK        -0.5238 
     82 H82       -52.5046  -30.1330    9.6897 H         1 UNK         0.0889 
     83 H83       -51.3015  -30.4961   10.9312 H         1 UNK         0.0889 
     84 H84       -52.0806  -31.8048   10.0423 H         1 UNK         0.0889 
     85 H85       -51.2672  -29.0042    8.1450 H         1 UNK         0.3028 
     86 H86       -49.4984  -30.3997    6.4328 H         1 UNK         0.0864 
     87 H87       -50.7480  -28.7547    5.3472 H         1 UNK         0.0720 
     88 H88       -49.1764  -28.0369    5.3984 H         1 UNK         0.0720 
     89 H89       -52.7425  -28.0638    6.3594 H         1 UNK         0.0814 
     90 H90       -52.5840  -26.6247    5.3855 H         1 UNK         0.0814 
     91 H91       -53.0475  -24.3530    6.4432 H         1 UNK         0.1469 
     92 H92       -55.6960  -24.3891    9.8149 H         1 UNK         0.1381 
     93 H93       -53.8774  -28.0324    8.4560 H         1 UNK         0.1206 
     94 H94       -55.7238  -26.3929   11.2547 H         1 UNK         0.0813 
     95 H95       -56.6532  -27.2049   10.0131 H         1 UNK         0.0813 
     96 H96       -56.8500  -29.8984   11.4800 H         1 UNK         0.0638 
     97 H97       -56.7612  -28.4317   12.4244 H         1 UNK         0.0638 
     98 H98       -55.0465  -29.3420   13.8794 H         1 UNK         0.0568 
     99 H99       -57.6644  -32.3432   14.6865 H         1 UNK         0.3450 
    100 H100      -56.3699  -32.5816   13.5407 H         1 UNK         0.3450 
    101 H101      -54.5382  -31.1399   11.7850 H         1 UNK         0.2987 
    102 H102      -54.5275  -31.7945   15.4307 H         1 UNK         0.0766 
    103 H103      -52.8864  -33.6930   15.2705 H         1 UNK         0.0798 
    104 H104      -52.6262  -32.7129   16.6955 H         1 UNK         0.0798 
    105 H105      -51.5612  -32.5363   15.3039 H         1 UNK         0.0798 
    106 H106      -52.7337  -29.6827   14.6841 H         1 UNK         0.3198 
    107 H107      -53.1998  -27.9839   17.8041 H         1 UNK         0.0843 
    108 H108      -50.5242  -28.8562   16.5811 H         1 UNK         0.0831 
    109 H109      -51.0155  -29.1051   18.2511 H         1 UNK         0.0831 
    110 H110      -50.7674  -27.4739   17.6481 H         1 UNK         0.0831 
    111 H111      -51.9349  -27.2846   15.3050 H         1 UNK         0.3133 
    112 H112      -54.6917  -26.8379   13.3757 H         1 UNK         0.0566 
    113 H113      -55.3326  -24.8080   14.7040 H         1 UNK         0.0814 
    114 H114      -54.5391  -24.3904   13.1972 H         1 UNK         0.0814 
    115 H115      -53.6504  -24.2939   14.7183 H         1 UNK         0.0814 
    116 H116      -52.2953  -25.4772   12.9724 H         1 UNK         0.3091 
    117 H117      -50.2224  -28.2450   12.0281 H         1 UNK         0.0702 
    118 H118      -50.2457  -26.9421    9.9035 H         1 UNK         0.0785 
    119 H119      -51.6975  -26.0947   10.4202 H         1 UNK         0.0785 
    120 H120      -51.7581  -27.8159   10.1150 H         1 UNK         0.0785 
    121 H121      -49.6617  -25.5149   11.8414 H         1 UNK         0.2998 
    122 H122      -48.2998  -25.0392   15.1285 H         1 UNK         0.0697 
    123 H123      -46.9175  -25.2985   12.4181 H         1 UNK         0.0825 
    124 H124      -46.6221  -26.3776   13.7792 H         1 UNK         0.0825 
    125 H125      -46.2397  -24.6714   13.9191 H         1 UNK         0.0825 
    126 H126      -48.8221  -23.7202   12.4856 H         1 UNK         0.3029 
    127 H127      -50.9105  -21.3232   14.0088 H         1 UNK         0.0897 
    128 H128      -48.1211  -20.8259   12.8278 H         1 UNK         0.0792 
    129 H129      -48.6562  -20.2920   14.4160 H         1 UNK         0.0792 
    130 H130      -49.4163  -19.6368   12.9762 H         1 UNK         0.0792 
    131 H131      -50.0292  -21.4502   11.3473 H         1 UNK         0.3086 
    132 H132      -52.2737  -23.9045   10.0968 H         1 UNK         0.0583 
    133 H133      -53.7049  -21.9503   10.3986 H         1 UNK         0.1020 
    134 H134      -52.3778  -20.8508   10.1498 H         1 UNK         0.1020 
    135 H135      -55.3740  -22.3467    8.6467 H         1 UNK         0.0694 
    136 H136      -55.0695  -22.5582    6.9417 H         1 UNK         0.0694 
    137 H137      -50.6987  -22.4508    8.5157 H         1 UNK         0.2989 
    138 H138      -48.6325  -24.6346    7.8057 H         1 UNK         0.1055 
    139 H139      -48.6960  -21.5655    7.7579 H         1 UNK         0.0806 
    140 H140      -49.7059  -22.6604    6.8120 H         1 UNK         0.0806 
    141 H141      -47.9862  -22.5764    6.5058 H         1 UNK         0.0806 
    142 H142      -46.5777  -24.5211    8.5273 H         1 UNK         0.3061 
    143 H143      -44.4029  -22.2882    9.3950 H         1 UNK         0.0734 
    144 H144      -45.4371  -23.4361   12.0353 H         1 UNK         0.0832 
    145 H145      -43.7661  -22.9672   11.7243 H         1 UNK         0.0832 
    146 H146      -45.0382  -21.7593   11.7108 H         1 UNK         0.0832 
    147 H147      -44.7742  -25.1046   10.2467 H         1 UNK         0.3156 
    148 H148      -43.7580  -26.3950    7.1307 H         1 UNK         0.0589 
    149 H149      -42.1496  -26.4372    9.7417 H         1 UNK         0.0808 
    150 H150      -41.5340  -25.9265    8.1766 H         1 UNK         0.0808 
    151 H151      -42.0162  -27.5961    8.4176 H         1 UNK         0.0808 
    152 H152      -44.2712  -27.7706    9.5252 H         1 UNK         0.3098 
    153 H153      -46.1837  -29.1161    9.4800 H         1 UNK         0.0720 
    154 H154      -46.2061  -27.4481   11.3412 H         1 UNK         0.0791 
    155 H155      -47.6817  -28.3953   11.3626 H         1 UNK         0.0791 
    156 H156      -47.6999  -26.7530   10.7192 H         1 UNK         0.0791 
    157 H157      -48.8859  -28.2220    9.1313 H         1 UNK         0.3028 
@<TRIPOS>BOND
     1    1    2 1    
     2    1   82 1    
     3    1   83 1    
     4    1   84 1    
     5    2    3 2    
     6    2    4 am   BACKBONE|DICT|INTERRES
     7    4    5 1    
     8    4   85 1    
     9    5    6 1    
    10    5   80 1    
    11    5   86 1    
    12    6    7 1    
    13    6   87 1    
    14    6   88 1    
    15    7    8 1    
    16    8    9 1    
    17    8   89 1    
    18    8   90 1    
    19    9   10 ar   
    20    9   14 ar   
    21   10   11 ar   
    22   10   91 1    
    23   11   12 ar   
    24   11   58 1    
    25   12   13 ar   
    26   12   92 1    
    27   13   14 ar   
    28   13   15 1    
    29   14   93 1    
    30   15   16 1    
    31   15   94 1    
    32   15   95 1    
    33   16   17 1    
    34   17   18 1    
    35   17   96 1    
    36   17   97 1    
    37   18   19 1    
    38   18   22 1    
    39   18   98 1    
    40   19   20 am   BACKBONE|DICT|INTERRES
    41   19   21 2    
    42   20   99 1    
    43   20  100 1    
    44   22   23 am   BACKBONE|DICT|INTERRES
    45   22  101 1    
    46   23   24 2    
    47   23   25 1    
    48   25   26 1    
    49   25   27 1    
    50   25  102 1    
    51   26  103 1    
    52   26  104 1    
    53   26  105 1    
    54   27   28 am   BACKBONE|DICT|INTERRES
    55   27  106 1    
    56   28   29 2    
    57   28   30 1    
    58   30   31 1    
    59   30   32 1    
    60   30  107 1    
    61   31  108 1    
    62   31  109 1    
    63   31  110 1    
    64   32   33 am   BACKBONE|DICT|INTERRES
    65   32  111 1    
    66   33   34 2    
    67   33   35 1    
    68   35   36 1    
    69   35   37 1    
    70   35  112 1    
    71   36  113 1    
    72   36  114 1    
    73   36  115 1    
    74   37   38 am   BACKBONE|DICT|INTERRES
    75   37  116 1    
    76   38   39 2    
    77   38   40 1    
    78   40   41 1    
    79   40   42 1    
    80   40  117 1    
    81   41  118 1    
    82   41  119 1    
    83   41  120 1    
    84   42   43 am   BACKBONE|DICT|INTERRES
    85   42  121 1    
    86   43   44 2    
    87   43   45 1    
    88   45   46 1    
    89   45   47 1    
    90   45  122 1    
    91   46  123 1    
    92   46  124 1    
    93   46  125 1    
    94   47   48 am   BACKBONE|DICT|INTERRES
    95   47  126 1    
    96   48   49 2    
    97   48   50 1    
    98   50   51 1    
    99   50   52 1    
   100   50  127 1    
   101   51  128 1    
   102   51  129 1    
   103   51  130 1    
   104   52   53 am   BACKBONE|DICT|INTERRES
   105   52  131 1    
   106   53   54 2    
   107   53   55 1    
   108   55   56 1    
   109   55   59 1    
   110   55  132 1    
   111   56   57 1    
   112   56  133 1    
   113   56  134 1    
   114   57   58 1    
   115   58  135 1    
   116   58  136 1    
   117   59   60 am   BACKBONE|DICT|INTERRES
   118   59  137 1    
   119   60   61 2    
   120   60   62 1    
   121   62   63 1    
   122   62   64 1    
   123   62  138 1    
   124   63  139 1    
   125   63  140 1    
   126   63  141 1    
   127   64   65 am   BACKBONE|DICT|INTERRES
   128   64  142 1    
   129   65   66 2    
   130   65   67 1    
   131   67   68 1    
   132   67   69 1    
   133   67  143 1    
   134   68  144 1    
   135   68  145 1    
   136   68  146 1    
   137   69   70 am   BACKBONE|DICT|INTERRES
   138   69  147 1    
   139   70   71 2    
   140   70   72 1    
   141   72   73 1    
   142   72   74 1    
   143   72  148 1    
   144   73  149 1    
   145   73  150 1    
   146   73  151 1    
   147   74   75 am   BACKBONE|DICT|INTERRES
   148   74  152 1    
   149   75   76 2    
   150   75   77 1    
   151   77   78 1    
   152   77   79 1    
   153   77  153 1    
   154   78  154 1    
   155   78  155 1    
   156   78  156 1    
   157   79   80 am   BACKBONE|DICT|INTERRES
   158   79  157 1    
   159   80   81 2    
@<TRIPOS>SUBSTRUCTURE
     1 UNK         1 GROUP             0       ****    0 ROOT    
