@<TRIPOS>MOLECULE
3R207
157   159    1
SMALL
USER_CHARGES


@<TRIPOS>ATOM
      1 CA        -51.5495  -31.2308    5.5482 C.3       0 UNK        -0.1975 
      2 C         -50.7337  -30.2367    4.7352 C.2       0 UNK         0.4852 
      3 O         -49.8538  -30.6381    3.9738 O.2       0 UNK        -0.5216 
      4 N         -51.0154  -28.9382    4.8995 N.am      1 UNK        -0.4461 
      5 CA        -50.3828  -27.8223    4.1810 C.3       1 UNK         0.0864 
      6 C6        -51.2017  -26.5000    4.2900 C.3       14 UNK        -0.0898 
      7 S7        -53.0201  -26.6835    4.2087 S.3       14 UNK        -0.2598 
      8 C8        -53.5291  -26.1632    5.8857 C.3       14 UNK         0.0286 
      9 C9        -53.3466  -27.2768    6.9095 C.ar      14 UNK        -0.0844 
     10 C10       -52.0856  -27.5355    7.4562 C.ar      14 UNK        -0.0881 
     11 C11       -51.8984  -28.6079    8.3307 C.ar      14 UNK        -0.0643 
     12 C12       -52.9957  -29.3786    8.7183 C.ar      14 UNK        -0.0930 
     13 C13       -54.2738  -29.0858    8.2389 C.ar      14 UNK        -0.0827 
     14 C14       -54.4413  -28.0492    7.3150 C.ar      14 UNK        -0.1249 
     15 C15       -55.4636  -29.8904    8.7353 C.3       14 UNK         0.0141 
     16 S16       -56.1137  -29.1806   10.2843 S.3       14 UNK        -0.2313 
     17 C17       -56.4775  -30.6779   11.2685 C.3       14 UNK        -0.0915 
     18 CA        -55.4800  -30.9280   12.4335 C.3       13 UNK         0.0968 
     19 C         -54.0514  -31.2925   11.9286 C.2       13 UNK         0.5732 
     20 N         -53.0096  -30.5485   12.2790 N.am      13 UNK        -0.7310 
     21 O         -53.8879  -32.2752   11.2094 O.2       13 UNK        -0.5035 
     22 N         -55.5448  -29.8564   13.4418 N.am      13 UNK        -0.4233 
     23 C         -55.1129  -29.9513   14.7053 C.2       13 UNK         0.4989 
     24 O         -54.6177  -30.9769   15.1761 O.2       13 UNK        -0.4996 
     25 CA        -55.2549  -28.6907   15.5859 C.3       12 UNK         0.0216 
     26 CB        -54.6923  -28.8930   17.0056 C.3       12 UNK        -0.1964 
     27 N         -54.6209  -27.5069   14.9963 N.am      12 UNK        -0.4276 
     28 C         -55.1212  -26.7760   13.9901 C.2       12 UNK         0.5020 
     29 O         -56.1790  -27.0541   13.4215 O.2       12 UNK        -0.5489 
     30 CA        -54.2988  -25.5586   13.5231 C.3       11 UNK         0.0294 
     31 CB        -55.1629  -24.4831   12.8321 C.3       11 UNK        -0.2019 
     32 N         -53.4630  -24.9620   14.5722 N.am      11 UNK        -0.4493 
     33 C         -53.8605  -24.4030   15.7254 C.2       11 UNK         0.4932 
     34 O         -55.0393  -24.3166   16.0732 O.2       11 UNK        -0.5029 
     35 CA        -52.7512  -23.8358   16.6369 C.3       10 UNK         0.0280 
     36 CB        -53.2018  -23.6878   18.1061 C.3       10 UNK        -0.1976 
     37 N         -51.4770  -24.5635   16.5557 N.am      10 UNK        -0.4242 
     38 C         -51.2536  -25.8518   16.8651 C.2       10 UNK         0.5072 
     39 O         -52.1416  -26.6183   17.2413 O.2       10 UNK        -0.5224 
     40 CA        -49.8186  -26.4043   16.7129 C.3       9 UNK         0.0343 
     41 CB        -49.8217  -27.7183   15.9116 C.3       9 UNK        -0.2003 
     42 N         -48.8890  -25.4643   16.0790 N.am      9 UNK        -0.4272 
     43 C         -48.2200  -24.4872   16.7073 C.2       9 UNK         0.4988 
     44 O         -48.2474  -24.3137   17.9257 O.2       9 UNK        -0.5108 
     45 CA        -47.4265  -23.5037   15.8233 C.3       8 UNK         0.0248 
     46 CB        -45.9705  -23.9654   15.6536 C.3       8 UNK        -0.2001 
     47 N         -48.0373  -23.2880   14.5058 N.am      8 UNK        -0.4140 
     48 C         -49.2452  -22.7326   14.3197 C.2       8 UNK         0.5028 
     49 O         -49.9419  -22.2919   15.2343 O.2       8 UNK        -0.5428 
     50 CA        -49.8059  -22.7367   12.8885 C.3       7 UNK         0.0264 
     51 CB        -49.2073  -21.5835   12.0682 C.3       7 UNK        -0.1988 
     52 N         -49.5927  -24.0194   12.2074 N.am      7 UNK        -0.4454 
     53 C         -50.1191  -25.1818   12.6228 C.2       7 UNK         0.5027 
     54 O         -50.9128  -25.2582   13.5588 O.2       7 UNK        -0.5083 
     55 CA        -49.6500  -26.4922   11.9650 C.3       6 UNK         0.0844 
     56 C56       -50.6119  -26.9943   10.8697 C.3       14 UNK        -0.0967 
     57 S57       -50.3758  -28.7882   10.6363 S.3       14 UNK        -0.2604 
     58 C58       -50.5082  -28.9532    8.8366 C.3       14 UNK         0.0134 
     59 N         -48.2571  -26.4357   11.5214 N.am      6 UNK        -0.4116 
     60 C         -47.2194  -26.4306   12.3677 C.2       5 UNK         0.5034 
     61 O         -47.3338  -26.4731   13.5929 O.2       5 UNK        -0.5045 
     62 CA        -45.8232  -26.3176   11.7435 C.3       5 UNK         0.0224 
     63 CB        -45.3702  -27.6653   11.1586 C.3       5 UNK        -0.1978 
     64 N         -45.7758  -25.2834   10.7094 N.am      5 UNK        -0.4737 
     65 C         -45.8617  -23.9693   10.9567 C.2       4 UNK         0.5027 
     66 O         -45.9723  -23.4898   12.0860 O.2       4 UNK        -0.5211 
     67 CA        -45.8518  -23.0380    9.7323 C.3       4 UNK         0.0297 
     68 CB        -44.4105  -22.7550    9.2800 C.3       4 UNK        -0.1993 
     69 N         -46.6308  -23.5587    8.6034 N.am      4 UNK        -0.4486 
     70 C         -47.9590  -23.7326    8.6296 C.2       3 UNK         0.4961 
     71 O         -48.6606  -23.4997    9.6101 O.2       3 UNK        -0.5105 
     72 CA        -48.6228  -24.2957    7.3662 C.3       3 UNK         0.0299 
     73 CB        -48.8000  -23.1992    6.3044 C.3       3 UNK        -0.1972 
     74 N         -47.9459  -25.4507    6.7730 N.am      3 UNK        -0.4305 
     75 C         -47.6243  -26.5876    7.4056 C.2       2 UNK         0.5006 
     76 O         -47.6797  -26.7378    8.6283 O.2       2 UNK        -0.5106 
     77 CA        -47.2823  -27.7801    6.4917 C.3       2 UNK         0.0296 
     78 CB        -46.7701  -29.0009    7.2791 C.3       2 UNK        -0.2002 
     79 N         -48.4790  -28.1613    5.7332 N.am      2 UNK        -0.4032 
     80 C         -48.9278  -27.5422    4.6299 C.2       1 UNK         0.5000 
     81 O         -48.2668  -26.6937    4.0271 O.2       1 UNK        -0.5238 
     82 H82       -50.9153  -31.7281    6.2814 H         1 UNK         0.0889 
     83 H83       -51.9760  -31.9906    4.8938 H         1 UNK         0.0889 
     84 H84       -52.3692  -30.7464    6.0791 H         1 UNK         0.0889 
     85 H85       -51.7759  -28.6720    5.5124 H         1 UNK         0.3028 
     86 H86       -50.3392  -28.1025    3.1263 H         1 UNK         0.0864 
     87 H87       -50.9119  -25.8338    3.4752 H         1 UNK         0.0720 
     88 H88       -50.9497  -25.9496    5.1974 H         1 UNK         0.0720 
     89 H89       -54.5774  -25.8627    5.8484 H         1 UNK         0.0814 
     90 H90       -52.9766  -25.2731    6.1904 H         1 UNK         0.0814 
     91 H91       -51.2391  -26.9254    7.1777 H         1 UNK         0.1469 
     92 H92       -52.8546  -30.1959    9.4117 H         1 UNK         0.1381 
     93 H93       -55.4262  -27.8373    6.9215 H         1 UNK         0.1206 
     94 H94       -56.2564  -29.9090    7.9861 H         1 UNK         0.0813 
     95 H95       -55.1580  -30.9269    8.8848 H         1 UNK         0.0813 
     96 H96       -56.5326  -31.5511   10.6163 H         1 UNK         0.0638 
     97 H97       -57.4835  -30.5642   11.6750 H         1 UNK         0.0638 
     98 H98       -55.8276  -31.8316   12.9378 H         1 UNK         0.0568 
     99 H99       -53.1357  -29.7442   12.8692 H         1 UNK         0.3450 
    100 H100      -52.0914  -30.7886   11.9418 H         1 UNK         0.3450 
    101 H101      -55.9145  -28.9619   13.1312 H         1 UNK         0.2987 
    102 H102      -56.3247  -28.4937   15.6831 H         1 UNK         0.0766 
    103 H103      -55.1824  -29.7277   17.5084 H         1 UNK         0.0798 
    104 H104      -54.8477  -28.0081   17.6236 H         1 UNK         0.0798 
    105 H105      -53.6218  -29.1023   16.9889 H         1 UNK         0.0798 
    106 H106      -53.7529  -27.2043   15.4198 H         1 UNK         0.3198 
    107 H107      -53.6044  -25.9451   12.7757 H         1 UNK         0.0843 
    108 H108      -55.9293  -24.0897   13.5005 H         1 UNK         0.0831 
    109 H109      -55.6730  -24.8921   11.9589 H         1 UNK         0.0831 
    110 H110      -54.5549  -23.6469   12.4872 H         1 UNK         0.0831 
    111 H111      -52.4609  -24.9945   14.3780 H         1 UNK         0.3133 
    112 H112      -52.5428  -22.8343   16.2584 H         1 UNK         0.0566 
    113 H113      -53.4918  -24.6459   18.5386 H         1 UNK         0.0814 
    114 H114      -54.0616  -23.0216   18.1876 H         1 UNK         0.0814 
    115 H115      -52.4088  -23.2664   18.7237 H         1 UNK         0.0814 
    116 H116      -50.7003  -24.0156   16.2020 H         1 UNK         0.3091 
    117 H117      -49.4550  -26.6280   17.7178 H         1 UNK         0.0702 
    118 H118      -48.8097  -28.0843   15.7362 H         1 UNK         0.0785 
    119 H119      -50.3099  -27.5977   14.9454 H         1 UNK         0.0785 
    120 H120      -50.3605  -28.5005   16.4479 H         1 UNK         0.0785 
    121 H121      -48.7659  -25.5594   15.0785 H         1 UNK         0.2998 
    122 H122      -47.4150  -22.5409   16.3386 H         1 UNK         0.0697 
    123 H123      -45.3907  -23.2455   15.0755 H         1 UNK         0.0825 
    124 H124      -45.9047  -24.9285   15.1478 H         1 UNK         0.0825 
    125 H125      -45.4812  -24.0734   16.6225 H         1 UNK         0.0825 
    126 H126      -47.5115  -23.6022   13.6974 H         1 UNK         0.3029 
    127 H127      -50.8839  -22.5757   12.9592 H         1 UNK         0.0897 
    128 H128      -48.1388  -21.7187   11.8986 H         1 UNK         0.0792 
    129 H129      -49.3399  -20.6291   12.5795 H         1 UNK         0.0792 
    130 H130      -49.6927  -21.4971   11.0961 H         1 UNK         0.0792 
    131 H131      -49.0208  -23.9975   11.3652 H         1 UNK         0.3086 
    132 H132      -49.6865  -27.2294   12.7694 H         1 UNK         0.0583 
    133 H133      -51.6557  -26.8361   11.1485 H         1 UNK         0.1020 
    134 H134      -50.4529  -26.4535    9.9348 H         1 UNK         0.1020 
    135 H135      -49.7552  -28.3240    8.3680 H         1 UNK         0.0694 
    136 H136      -50.2714  -29.9808    8.5581 H         1 UNK         0.0694 
    137 H137      -48.0827  -26.4309   10.5200 H         1 UNK         0.2989 
    138 H138      -45.1275  -26.0380   12.5382 H         1 UNK         0.1055 
    139 H139      -45.3686  -28.4402   11.9264 H         1 UNK         0.0806 
    140 H140      -44.3579  -27.6044   10.7588 H         1 UNK         0.0806 
    141 H141      -46.0277  -28.0046   10.3575 H         1 UNK         0.0806 
    142 H142      -45.7640  -25.5954    9.7484 H         1 UNK         0.3061 
    143 H143      -46.3024  -22.0912   10.0385 H         1 UNK         0.0734 
    144 H144      -43.9087  -23.6589    8.9327 H         1 UNK         0.0832 
    145 H145      -44.3839  -22.0232    8.4724 H         1 UNK         0.0832 
    146 H146      -43.8180  -22.3492   10.1014 H         1 UNK         0.0832 
    147 H147      -46.1294  -23.7920    7.7585 H         1 UNK         0.3156 
    148 H148      -49.6184  -24.6372    7.6576 H         1 UNK         0.0589 
    149 H149      -49.3929  -23.5547    5.4612 H         1 UNK         0.0808 
    150 H150      -47.8416  -22.8510    5.9173 H         1 UNK         0.0808 
    151 H151      -49.3183  -22.3334    6.7194 H         1 UNK         0.0808 
    152 H152      -47.8745  -25.4569    5.7617 H         1 UNK         0.3098 
    153 H153      -46.4943  -27.4660    5.8039 H         1 UNK         0.0720 
    154 H154      -45.8678  -28.7507    7.8385 H         1 UNK         0.0791 
    155 H155      -46.5181  -29.8246    6.6111 H         1 UNK         0.0791 
    156 H156      -47.5059  -29.3654    7.9968 H         1 UNK         0.0791 
    157 H157      -49.0840  -28.8468    6.1588 H         1 UNK         0.3028 
@<TRIPOS>BOND
     1    1    2 1    
     2    1   82 1    
     3    1   83 1    
     4    1   84 1    
     5    2    3 2    
     6    2    4 am   BACKBONE|DICT|INTERRES
     7    4    5 1    
     8    4   85 1    
     9    5    6 1    
    10    5   80 1    
    11    5   86 1    
    12    6    7 1    
    13    6   87 1    
    14    6   88 1    
    15    7    8 1    
    16    8    9 1    
    17    8   89 1    
    18    8   90 1    
    19    9   10 ar   
    20    9   14 ar   
    21   10   11 ar   
    22   10   91 1    
    23   11   12 ar   
    24   11   58 1    
    25   12   13 ar   
    26   12   92 1    
    27   13   14 ar   
    28   13   15 1    
    29   14   93 1    
    30   15   16 1    
    31   15   94 1    
    32   15   95 1    
    33   16   17 1    
    34   17   18 1    
    35   17   96 1    
    36   17   97 1    
    37   18   19 1    
    38   18   22 1    
    39   18   98 1    
    40   19   20 am   BACKBONE|DICT|INTERRES
    41   19   21 2    
    42   20   99 1    
    43   20  100 1    
    44   22   23 am   BACKBONE|DICT|INTERRES
    45   22  101 1    
    46   23   24 2    
    47   23   25 1    
    48   25   26 1    
    49   25   27 1    
    50   25  102 1    
    51   26  103 1    
    52   26  104 1    
    53   26  105 1    
    54   27   28 am   BACKBONE|DICT|INTERRES
    55   27  106 1    
    56   28   29 2    
    57   28   30 1    
    58   30   31 1    
    59   30   32 1    
    60   30  107 1    
    61   31  108 1    
    62   31  109 1    
    63   31  110 1    
    64   32   33 am   BACKBONE|DICT|INTERRES
    65   32  111 1    
    66   33   34 2    
    67   33   35 1    
    68   35   36 1    
    69   35   37 1    
    70   35  112 1    
    71   36  113 1    
    72   36  114 1    
    73   36  115 1    
    74   37   38 am   BACKBONE|DICT|INTERRES
    75   37  116 1    
    76   38   39 2    
    77   38   40 1    
    78   40   41 1    
    79   40   42 1    
    80   40  117 1    
    81   41  118 1    
    82   41  119 1    
    83   41  120 1    
    84   42   43 am   BACKBONE|DICT|INTERRES
    85   42  121 1    
    86   43   44 2    
    87   43   45 1    
    88   45   46 1    
    89   45   47 1    
    90   45  122 1    
    91   46  123 1    
    92   46  124 1    
    93   46  125 1    
    94   47   48 am   BACKBONE|DICT|INTERRES
    95   47  126 1    
    96   48   49 2    
    97   48   50 1    
    98   50   51 1    
    99   50   52 1    
   100   50  127 1    
   101   51  128 1    
   102   51  129 1    
   103   51  130 1    
   104   52   53 am   BACKBONE|DICT|INTERRES
   105   52  131 1    
   106   53   54 2    
   107   53   55 1    
   108   55   56 1    
   109   55   59 1    
   110   55  132 1    
   111   56   57 1    
   112   56  133 1    
   113   56  134 1    
   114   57   58 1    
   115   58  135 1    
   116   58  136 1    
   117   59   60 am   BACKBONE|DICT|INTERRES
   118   59  137 1    
   119   60   61 2    
   120   60   62 1    
   121   62   63 1    
   122   62   64 1    
   123   62  138 1    
   124   63  139 1    
   125   63  140 1    
   126   63  141 1    
   127   64   65 am   BACKBONE|DICT|INTERRES
   128   64  142 1    
   129   65   66 2    
   130   65   67 1    
   131   67   68 1    
   132   67   69 1    
   133   67  143 1    
   134   68  144 1    
   135   68  145 1    
   136   68  146 1    
   137   69   70 am   BACKBONE|DICT|INTERRES
   138   69  147 1    
   139   70   71 2    
   140   70   72 1    
   141   72   73 1    
   142   72   74 1    
   143   72  148 1    
   144   73  149 1    
   145   73  150 1    
   146   73  151 1    
   147   74   75 am   BACKBONE|DICT|INTERRES
   148   74  152 1    
   149   75   76 2    
   150   75   77 1    
   151   77   78 1    
   152   77   79 1    
   153   77  153 1    
   154   78  154 1    
   155   78  155 1    
   156   78  156 1    
   157   79   80 am   BACKBONE|DICT|INTERRES
   158   79  157 1    
   159   80   81 2    
@<TRIPOS>SUBSTRUCTURE
     1 UNK         1 GROUP             0       ****    0 ROOT    
