@<TRIPOS>MOLECULE
3R207
157   159    1
SMALL
USER_CHARGES


@<TRIPOS>ATOM
      1 CA        -49.7829  -25.3236    2.8160 C.3       0 UNK        -0.1975 
      2 C         -50.5634  -25.2613    4.1202 C.2       0 UNK         0.4852 
      3 O         -50.9000  -24.1682    4.5777 O.2       0 UNK        -0.5216 
      4 N         -50.8477  -26.4253    4.7210 N.am      1 UNK        -0.4461 
      5 CA        -51.5398  -26.5997    6.0043 C.3       1 UNK         0.0864 
      6 C6        -51.7454  -28.0987    6.3652 C.3       14 UNK        -0.0898 
      7 S7        -50.2702  -29.1486    6.1063 S.3       14 UNK        -0.2598 
      8 C8        -50.8840  -30.7800    6.6276 C.3       14 UNK         0.0286 
      9 C9        -50.7395  -30.9968    8.1274 C.ar      14 UNK        -0.0844 
     10 C10       -49.4705  -31.1823    8.6840 C.ar      14 UNK        -0.0881 
     11 C11       -49.3206  -31.4312   10.0512 C.ar      14 UNK        -0.0643 
     12 C12       -50.4544  -31.5013   10.8645 C.ar      14 UNK        -0.0930 
     13 C13       -51.7300  -31.3114   10.3215 C.ar      14 UNK        -0.0827 
     14 C14       -51.8666  -31.0545    8.9528 C.ar      14 UNK        -0.1249 
     15 C15       -52.9580  -31.3832   11.2164 C.3       14 UNK         0.0141 
     16 S16       -52.9925  -29.9745   12.3576 S.3       14 UNK        -0.2313 
     17 C17       -54.6745  -30.0788   13.0523 C.3       14 UNK        -0.0915 
     18 CA        -55.7156  -29.2169   12.2858 C.3       13 UNK         0.0968 
     19 C         -57.1022  -29.2693   12.9915 C.2       13 UNK         0.5732 
     20 N         -57.6382  -28.1665   13.5057 N.am      13 UNK        -0.7310 
     21 O         -57.7091  -30.3351   13.0669 O.2       13 UNK        -0.5035 
     22 N         -55.2327  -27.8527   12.0272 N.am      13 UNK        -0.4233 
     23 C         -55.7115  -27.0450   11.0732 C.2       13 UNK         0.4989 
     24 O         -56.5601  -27.3968   10.2512 O.2       13 UNK        -0.4996 
     25 CA        -55.1499  -25.6097   11.0146 C.3       12 UNK         0.0216 
     26 CB        -56.1450  -24.6065   10.3941 C.3       12 UNK        -0.1964 
     27 N         -54.6520  -25.1056   12.2989 N.am      12 UNK        -0.4276 
     28 C         -55.3228  -24.9589   13.4497 C.2       12 UNK         0.5020 
     29 O         -56.5023  -25.2812   13.6172 O.2       12 UNK        -0.5489 
     30 CA        -54.5066  -24.3694   14.6180 C.3       11 UNK         0.0294 
     31 CB        -55.3600  -23.4020   15.4574 C.3       11 UNK        -0.2019 
     32 N         -53.8728  -25.3407   15.5221 N.am      11 UNK        -0.4493 
     33 C         -53.3944  -26.5653   15.2547 C.2       11 UNK         0.4932 
     34 O         -53.5308  -27.1628   14.1899 O.2       11 UNK        -0.5029 
     35 CA        -52.5508  -27.2003   16.3679 C.3       10 UNK         0.0280 
     36 CB        -52.4021  -28.7243   16.2023 C.3       10 UNK        -0.1976 
     37 N         -51.2264  -26.5831   16.3411 N.am      10 UNK        -0.4242 
     38 C         -50.8887  -25.4732   17.0102 C.2       10 UNK         0.5072 
     39 O         -51.6396  -24.8953   17.7981 O.2       10 UNK        -0.5224 
     40 CA        -49.4926  -24.8942   16.7312 C.3       9 UNK         0.0343 
     41 CB        -48.3847  -25.8351   17.2341 C.3       9 UNK        -0.2003 
     42 N         -49.2902  -24.6058   15.3106 N.am      9 UNK        -0.4272 
     43 C         -49.9121  -23.6301   14.6291 C.2       9 UNK         0.4988 
     44 O         -50.6930  -22.8244   15.1361 O.2       9 UNK        -0.5108 
     45 CA        -49.6184  -23.5460   13.1213 C.3       8 UNK         0.0248 
     46 CB        -48.2551  -22.8839   12.8658 C.3       8 UNK        -0.2001 
     47 N         -49.6645  -24.8705   12.5008 N.am      8 UNK        -0.4140 
     48 C         -50.7939  -25.5680   12.3237 C.2       8 UNK         0.5028 
     49 O         -51.9121  -25.0762   12.4710 O.2       8 UNK        -0.5428 
     50 CA        -50.6775  -27.0504   11.9286 C.3       7 UNK         0.0264 
     51 CB        -51.0313  -27.2777   10.4548 C.3       7 UNK        -0.1988 
     52 N         -49.3584  -27.6257   12.1900 N.am      7 UNK        -0.4454 
     53 C         -48.9260  -28.0064   13.3970 C.2       7 UNK         0.5027 
     54 O         -49.5844  -27.8898   14.4307 O.2       7 UNK        -0.5083 
     55 CA        -47.4910  -28.5642   13.4706 C.3       6 UNK         0.0844 
     56 C56       -47.3855  -30.0006   12.8892 C.3       14 UNK        -0.0967 
     57 S57       -47.1473  -30.0628   11.0743 S.3       14 UNK        -0.2604 
     58 C58       -47.9327  -31.6432   10.6343 C.3       14 UNK         0.0134 
     59 N         -46.5114  -27.6492   12.8795 N.am      6 UNK        -0.4116 
     60 C         -46.2773  -26.3903   13.2679 C.2       5 UNK         0.5034 
     61 O         -46.8213  -25.8539   14.2330 O.2       5 UNK        -0.5045 
     62 CA        -45.2966  -25.5770   12.4043 C.3       5 UNK         0.0224 
     63 CB        -43.8558  -25.7738   12.9015 C.3       5 UNK        -0.1978 
     64 N         -45.3614  -25.8651   10.9635 N.am      5 UNK        -0.4737 
     65 C         -46.4570  -25.7395   10.2016 C.2       4 UNK         0.5027 
     66 O         -47.5739  -25.4793   10.6497 O.2       4 UNK        -0.5211 
     67 CA        -46.2858  -25.9846    8.6958 C.3       4 UNK         0.0297 
     68 CB        -46.7114  -27.4178    8.3373 C.3       4 UNK        -0.1993 
     69 N         -47.1006  -25.0348    7.9372 N.am      4 UNK        -0.4486 
     70 C         -46.7491  -23.7656    7.6780 C.2       3 UNK         0.4961 
     71 O         -45.6452  -23.2960    7.9582 O.2       3 UNK        -0.5105 
     72 CA        -47.7897  -22.8567    6.9876 C.3       3 UNK         0.0299 
     73 CB        -47.5887  -22.8766    5.4640 C.3       3 UNK        -0.1972 
     74 N         -49.1710  -23.2323    7.2927 N.am      3 UNK        -0.4305 
     75 C         -49.7301  -23.1508    8.5084 C.2       2 UNK         0.5006 
     76 O         -49.2288  -22.5173    9.4368 O.2       2 UNK        -0.5106 
     77 CA        -51.0515  -23.9123    8.7553 C.3       2 UNK         0.0296 
     78 CB        -52.1880  -22.9451    9.1278 C.3       2 UNK        -0.2002 
     79 N         -51.5111  -24.7961    7.6730 N.am      2 UNK        -0.4032 
     80 C         -50.8350  -25.8236    7.1348 C.2       1 UNK         0.5000 
     81 O         -49.6858  -26.1285    7.4546 O.2       1 UNK        -0.5238 
     82 H82       -49.5195  -26.3464    2.5468 H         1 UNK         0.0889 
     83 H83       -48.8621  -24.7477    2.9009 H         1 UNK         0.0889 
     84 H84       -50.3753  -24.9008    2.0051 H         1 UNK         0.0889 
     85 H85       -50.5027  -27.2850    4.3175 H         1 UNK         0.3028 
     86 H86       -52.5333  -26.1644    5.8777 H         1 UNK         0.0864 
     87 H87       -52.5458  -28.5047    5.7449 H         1 UNK         0.0720 
     88 H88       -52.0864  -28.2122    7.3966 H         1 UNK         0.0720 
     89 H89       -50.3132  -31.5488    6.1049 H         1 UNK         0.0814 
     90 H90       -51.9200  -30.9058    6.3090 H         1 UNK         0.0814 
     91 H91       -48.5963  -31.1336    8.0489 H         1 UNK         0.1469 
     92 H92       -50.3471  -31.6939   11.9231 H         1 UNK         0.1381 
     93 H93       -52.8506  -30.9101    8.5280 H         1 UNK         0.1206 
     94 H94       -52.9492  -32.3143   11.7846 H         1 UNK         0.0813 
     95 H95       -53.8712  -31.3866   10.6192 H         1 UNK         0.0813 
     96 H96       -54.6132  -29.7534   14.0920 H         1 UNK         0.0638 
     97 H97       -54.9839  -31.1251   13.0799 H         1 UNK         0.0638 
     98 H98       -55.8607  -29.6921   11.3140 H         1 UNK         0.0568 
     99 H99       -58.5382  -28.2207   13.9543 H         1 UNK         0.3450 
    100 H100      -57.1545  -27.2767   13.4526 H         1 UNK         0.3450 
    101 H101      -54.5478  -27.4991   12.6936 H         1 UNK         0.2987 
    102 H102      -54.2797  -25.6598   10.3590 H         1 UNK         0.0766 
    103 H103      -55.7166  -23.6058   10.3387 H         1 UNK         0.0798 
    104 H104      -57.0672  -24.5454   10.9730 H         1 UNK         0.0798 
    105 H105      -56.4161  -24.8967    9.3783 H         1 UNK         0.0798 
    106 H106      -53.6395  -24.9559   12.3383 H         1 UNK         0.3198 
    107 H107      -53.6927  -23.7846   14.1842 H         1 UNK         0.0843 
    108 H108      -56.1429  -23.9289   16.0044 H         1 UNK         0.0831 
    109 H109      -55.8485  -22.6605   14.8236 H         1 UNK         0.0831 
    110 H110      -54.7521  -22.8574   16.1800 H         1 UNK         0.0831 
    111 H111      -53.6422  -24.9753   16.4366 H         1 UNK         0.3133 
    112 H112      -53.0386  -27.0140   17.3271 H         1 UNK         0.0566 
    113 H113      -51.7995  -29.1528   17.0030 H         1 UNK         0.0814 
    114 H114      -53.3759  -29.2139   16.2288 H         1 UNK         0.0814 
    115 H115      -51.9318  -28.9879   15.2538 H         1 UNK         0.0814 
    116 H116      -50.5664  -26.9806   15.6731 H         1 UNK         0.3091 
    117 H117      -49.4074  -23.9539   17.2801 H         1 UNK         0.0702 
    118 H118      -47.4010  -25.3779   17.1249 H         1 UNK         0.0785 
    119 H119      -48.3718  -26.7793   16.6883 H         1 UNK         0.0785 
    120 H120      -48.5192  -26.0684   18.2911 H         1 UNK         0.0785 
    121 H121      -48.6201  -25.1915   14.8216 H         1 UNK         0.2998 
    122 H122      -50.3866  -22.9261   12.6536 H         1 UNK         0.0697 
    123 H123      -47.4506  -23.3875   13.3998 H         1 UNK         0.0825 
    124 H124      -48.2629  -21.8458   13.1994 H         1 UNK         0.0825 
    125 H125      -48.0041  -22.8825   11.8050 H         1 UNK         0.0825 
    126 H126      -48.7861  -25.2784   12.1960 H         1 UNK         0.3029 
    127 H127      -51.4106  -27.5826   12.5365 H         1 UNK         0.0897 
    128 H128      -51.9758  -26.8010   10.1914 H         1 UNK         0.0792 
    129 H129      -51.1302  -28.3405   10.2327 H         1 UNK         0.0792 
    130 H130      -50.2544  -26.8765    9.8076 H         1 UNK         0.0792 
    131 H131      -48.7363  -27.7214   11.3992 H         1 UNK         0.3086 
    132 H132      -47.2475  -28.6307   14.5333 H         1 UNK         0.0583 
    133 H133      -46.5292  -30.5037   13.3410 H         1 UNK         0.1020 
    134 H134      -48.2535  -30.5987   13.1748 H         1 UNK         0.1020 
    135 H135      -47.3035  -32.1495    9.9007 H         1 UNK         0.0694 
    136 H136      -47.9731  -32.3058   11.5001 H         1 UNK         0.0694 
    137 H137      -46.0348  -27.9924   12.0581 H         1 UNK         0.2989 
    138 H138      -45.5559  -24.5244   12.5313 H         1 UNK         0.1055 
    139 H139      -43.7757  -25.5464   13.9657 H         1 UNK         0.0806 
    140 H140      -43.1615  -25.1145   12.3801 H         1 UNK         0.0806 
    141 H141      -43.5153  -26.8005   12.7613 H         1 UNK         0.0806 
    142 H142      -44.4881  -26.1020   10.5139 H         1 UNK         0.3061 
    143 H143      -45.2371  -25.8528    8.4213 H         1 UNK         0.0734 
    144 H144      -46.6431  -27.5973    7.2643 H         1 UNK         0.0832 
    145 H145      -46.0722  -28.1506    8.8307 H         1 UNK         0.0832 
    146 H146      -47.7387  -27.6245    8.6427 H         1 UNK         0.0832 
    147 H147      -48.0511  -25.3397    7.7299 H         1 UNK         0.3156 
    148 H148      -47.6307  -21.8363    7.3423 H         1 UNK         0.0589 
    149 H149      -47.7230  -23.8784    5.0545 H         1 UNK         0.0808 
    150 H150      -48.2902  -22.2111    4.9604 H         1 UNK         0.0808 
    151 H151      -46.5825  -22.5485    5.1996 H         1 UNK         0.0808 
    152 H152      -49.6714  -23.7394    6.5742 H         1 UNK         0.3098 
    153 H153      -50.8626  -24.5461    9.6206 H         1 UNK         0.0720 
    154 H154      -53.0854  -23.4839    9.4321 H         1 UNK         0.0791 
    155 H155      -52.4497  -22.2914    8.2950 H         1 UNK         0.0791 
    156 H156      -51.9014  -22.3085    9.9662 H         1 UNK         0.0791 
    157 H157      -52.4233  -24.5828    7.2960 H         1 UNK         0.3028 
@<TRIPOS>BOND
     1    1    2 1    
     2    1   82 1    
     3    1   83 1    
     4    1   84 1    
     5    2    3 2    
     6    2    4 am   BACKBONE|DICT|INTERRES
     7    4    5 1    
     8    4   85 1    
     9    5    6 1    
    10    5   80 1    
    11    5   86 1    
    12    6    7 1    
    13    6   87 1    
    14    6   88 1    
    15    7    8 1    
    16    8    9 1    
    17    8   89 1    
    18    8   90 1    
    19    9   10 ar   
    20    9   14 ar   
    21   10   11 ar   
    22   10   91 1    
    23   11   12 ar   
    24   11   58 1    
    25   12   13 ar   
    26   12   92 1    
    27   13   14 ar   
    28   13   15 1    
    29   14   93 1    
    30   15   16 1    
    31   15   94 1    
    32   15   95 1    
    33   16   17 1    
    34   17   18 1    
    35   17   96 1    
    36   17   97 1    
    37   18   19 1    
    38   18   22 1    
    39   18   98 1    
    40   19   20 am   BACKBONE|DICT|INTERRES
    41   19   21 2    
    42   20   99 1    
    43   20  100 1    
    44   22   23 am   BACKBONE|DICT|INTERRES
    45   22  101 1    
    46   23   24 2    
    47   23   25 1    
    48   25   26 1    
    49   25   27 1    
    50   25  102 1    
    51   26  103 1    
    52   26  104 1    
    53   26  105 1    
    54   27   28 am   BACKBONE|DICT|INTERRES
    55   27  106 1    
    56   28   29 2    
    57   28   30 1    
    58   30   31 1    
    59   30   32 1    
    60   30  107 1    
    61   31  108 1    
    62   31  109 1    
    63   31  110 1    
    64   32   33 am   BACKBONE|DICT|INTERRES
    65   32  111 1    
    66   33   34 2    
    67   33   35 1    
    68   35   36 1    
    69   35   37 1    
    70   35  112 1    
    71   36  113 1    
    72   36  114 1    
    73   36  115 1    
    74   37   38 am   BACKBONE|DICT|INTERRES
    75   37  116 1    
    76   38   39 2    
    77   38   40 1    
    78   40   41 1    
    79   40   42 1    
    80   40  117 1    
    81   41  118 1    
    82   41  119 1    
    83   41  120 1    
    84   42   43 am   BACKBONE|DICT|INTERRES
    85   42  121 1    
    86   43   44 2    
    87   43   45 1    
    88   45   46 1    
    89   45   47 1    
    90   45  122 1    
    91   46  123 1    
    92   46  124 1    
    93   46  125 1    
    94   47   48 am   BACKBONE|DICT|INTERRES
    95   47  126 1    
    96   48   49 2    
    97   48   50 1    
    98   50   51 1    
    99   50   52 1    
   100   50  127 1    
   101   51  128 1    
   102   51  129 1    
   103   51  130 1    
   104   52   53 am   BACKBONE|DICT|INTERRES
   105   52  131 1    
   106   53   54 2    
   107   53   55 1    
   108   55   56 1    
   109   55   59 1    
   110   55  132 1    
   111   56   57 1    
   112   56  133 1    
   113   56  134 1    
   114   57   58 1    
   115   58  135 1    
   116   58  136 1    
   117   59   60 am   BACKBONE|DICT|INTERRES
   118   59  137 1    
   119   60   61 2    
   120   60   62 1    
   121   62   63 1    
   122   62   64 1    
   123   62  138 1    
   124   63  139 1    
   125   63  140 1    
   126   63  141 1    
   127   64   65 am   BACKBONE|DICT|INTERRES
   128   64  142 1    
   129   65   66 2    
   130   65   67 1    
   131   67   68 1    
   132   67   69 1    
   133   67  143 1    
   134   68  144 1    
   135   68  145 1    
   136   68  146 1    
   137   69   70 am   BACKBONE|DICT|INTERRES
   138   69  147 1    
   139   70   71 2    
   140   70   72 1    
   141   72   73 1    
   142   72   74 1    
   143   72  148 1    
   144   73  149 1    
   145   73  150 1    
   146   73  151 1    
   147   74   75 am   BACKBONE|DICT|INTERRES
   148   74  152 1    
   149   75   76 2    
   150   75   77 1    
   151   77   78 1    
   152   77   79 1    
   153   77  153 1    
   154   78  154 1    
   155   78  155 1    
   156   78  156 1    
   157   79   80 am   BACKBONE|DICT|INTERRES
   158   79  157 1    
   159   80   81 2    
@<TRIPOS>SUBSTRUCTURE
     1 UNK         1 GROUP             0       ****    0 ROOT    
