@<TRIPOS>MOLECULE
3R207
157   159    1
SMALL
USER_CHARGES


@<TRIPOS>ATOM
      1 CA        -49.9672  -29.2873    9.2804 C.3       0 UNK        -0.1975 
      2 C         -49.2566  -29.7347    8.0128 C.2       0 UNK         0.4852 
      3 O         -48.1807  -30.3264    8.0953 O.2       0 UNK        -0.5216 
      4 N         -49.8351  -29.4430    6.8387 N.am      1 UNK        -0.4461 
      5 CA        -49.2353  -29.7305    5.5263 C.3       1 UNK         0.0864 
      6 C6        -50.3148  -29.8732    4.4208 C.3       14 UNK        -0.0898 
      7 S7        -51.1628  -28.3202    3.9530 S.3       14 UNK        -0.2598 
      8 C8        -52.8749  -28.6229    4.4881 C.3       14 UNK         0.0286 
      9 C9        -53.0508  -28.3573    5.9742 C.ar      14 UNK        -0.0844 
     10 C10       -53.1323  -27.0425    6.4408 C.ar      14 UNK        -0.0881 
     11 C11       -53.3127  -26.7747    7.8006 C.ar      14 UNK        -0.0643 
     12 C12       -53.4105  -27.8464    8.6971 C.ar      14 UNK        -0.0930 
     13 C13       -53.3320  -29.1671    8.2419 C.ar      14 UNK        -0.0827 
     14 C14       -53.1540  -29.4165    6.8785 C.ar      14 UNK        -0.1249 
     15 C15       -53.3925  -30.3286    9.2219 C.3       14 UNK         0.0141 
     16 S16       -55.0924  -30.8988    9.5430 S.3       14 UNK        -0.2313 
     17 C17       -55.6668  -29.7544   10.8443 C.3       14 UNK        -0.0915 
     18 CA        -55.3537  -30.2711   12.2764 C.3       13 UNK         0.0968 
     19 C         -53.9115  -29.9134   12.7212 C.2       13 UNK         0.5732 
     20 N         -53.0485  -30.9009   12.9183 N.am      13 UNK        -0.7310 
     21 O         -53.5657  -28.7410   12.8410 O.2       13 UNK        -0.5035 
     22 N         -56.3228  -29.7597   13.2517 N.am      13 UNK        -0.4233 
     23 C         -56.5363  -30.3074   14.4550 C.2       13 UNK         0.4989 
     24 O         -56.0336  -31.3717   14.8223 O.2       13 UNK        -0.4996 
     25 CA        -57.4716  -29.5252   15.3976 C.3       12 UNK         0.0216 
     26 CB        -57.5950  -30.1693   16.7961 C.3       12 UNK        -0.1964 
     27 N         -57.1109  -28.1045   15.5133 N.am      12 UNK        -0.4276 
     28 C         -55.9479  -27.5913   15.9443 C.2       12 UNK         0.5020 
     29 O         -54.9725  -28.2588   16.2963 O.2       12 UNK        -0.5489 
     30 CA        -55.8916  -26.0620   16.0321 C.3       11 UNK         0.0294 
     31 CB        -56.6764  -25.5548   17.2587 C.3       11 UNK        -0.2019 
     32 N         -54.5016  -25.6180   16.1156 N.am      11 UNK        -0.4493 
     33 C         -54.0666  -24.3940   15.7999 C.2       11 UNK         0.4932 
     34 O         -54.8084  -23.5019   15.3858 O.2       11 UNK        -0.5029 
     35 CA        -52.5689  -24.0816   15.9639 C.3       10 UNK         0.0280 
     36 CB        -52.2634  -23.5354   17.3720 C.3       10 UNK        -0.1976 
     37 N         -51.6511  -25.1644   15.5931 N.am      10 UNK        -0.4242 
     38 C         -51.4057  -26.3286   16.2092 C.2       10 UNK         0.5072 
     39 O         -52.0179  -26.7285   17.1998 O.2       10 UNK        -0.5224 
     40 CA        -50.2622  -27.1826   15.6304 C.3       9 UNK         0.0343 
     41 CB        -50.7603  -28.0469   14.4631 C.3       9 UNK        -0.2003 
     42 N         -49.1177  -26.3772   15.1915 N.am      9 UNK        -0.4272 
     43 C         -48.3058  -25.7011   16.0186 C.2       9 UNK         0.4988 
     44 O         -48.3865  -25.7458   17.2469 O.2       9 UNK        -0.5108 
     45 CA        -47.2241  -24.8172   15.3733 C.3       8 UNK         0.0248 
     46 CB        -46.0034  -25.6572   14.9642 C.3       8 UNK        -0.2001 
     47 N         -47.7196  -24.0608   14.2205 N.am      8 UNK        -0.4140 
     48 C         -48.6316  -23.0797   14.2922 C.2       8 UNK         0.5028 
     49 O         -49.0977  -22.6522   15.3487 O.2       8 UNK        -0.5428 
     50 CA        -49.1312  -22.4849   12.9633 C.3       7 UNK         0.0264 
     51 CB        -48.1858  -21.3768   12.4737 C.3       7 UNK        -0.1988 
     52 N         -49.3161  -23.4856   11.9069 N.am      7 UNK        -0.4454 
     53 C         -50.1815  -24.5095   11.9774 C.2       7 UNK         0.5027 
     54 O         -50.9275  -24.6987   12.9373 O.2       7 UNK        -0.5083 
     55 CA        -50.1750  -25.5295   10.8174 C.3       6 UNK         0.0844 
     56 C56       -50.9655  -25.0267    9.5849 C.3       14 UNK        -0.0967 
     57 S57       -52.7613  -24.9599    9.9022 S.3       14 UNK        -0.2604 
     58 C58       -53.4556  -25.3231    8.2559 C.3       14 UNK         0.0134 
     59 N         -48.8116  -25.9280   10.4664 N.am      6 UNK        -0.4116 
     60 C         -47.9581  -26.5454   11.2962 C.2       5 UNK         0.5034 
     61 O         -48.2518  -26.9223   12.4304 O.2       5 UNK        -0.5045 
     62 CA        -46.5172  -26.7218   10.7947 C.3       5 UNK         0.0224 
     63 CB        -46.3967  -27.9333    9.8588 C.3       5 UNK        -0.1978 
     64 N         -46.0216  -25.5205   10.1193 N.am      5 UNK        -0.4737 
     65 C         -45.7678  -24.3609   10.7414 C.2       4 UNK         0.5027 
     66 O         -45.8930  -24.1949   11.9535 O.2       4 UNK        -0.5211 
     67 CA        -45.3365  -23.1801    9.8571 C.3       4 UNK         0.0297 
     68 CB        -43.8244  -23.2310    9.5884 C.3       4 UNK        -0.1993 
     69 N         -46.0626  -23.1286    8.5854 N.am      4 UNK        -0.4486 
     70 C         -47.3776  -22.8931    8.4735 C.2       3 UNK         0.4961 
     71 O         -48.1239  -22.6833    9.4290 O.2       3 UNK        -0.5105 
     72 CA        -47.9678  -22.9592    7.0557 C.3       3 UNK         0.0299 
     73 CB        -47.6836  -21.6602    6.2848 C.3       3 UNK        -0.1972 
     74 N         -47.4914  -24.1133    6.2842 N.am      3 UNK        -0.4305 
     75 C         -47.6903  -25.3881    6.6420 C.2       2 UNK         0.5006 
     76 O         -48.2552  -25.7291    7.6864 O.2       2 UNK        -0.5106 
     77 CA        -47.1582  -26.4696    5.6979 C.3       2 UNK         0.0296 
     78 CB        -45.6903  -26.8091    6.0180 C.3       2 UNK        -0.2002 
     79 N         -48.0168  -27.6283    5.8936 N.am      2 UNK        -0.4032 
     80 C         -48.1234  -28.7245    5.1361 C.2       1 UNK         0.5000 
     81 O         -47.4101  -28.9528    4.1569 O.2       1 UNK        -0.5238 
     82 H82       -50.5207  -30.1195    9.7115 H         1 UNK         0.0889 
     83 H83       -50.6543  -28.4643    9.0889 H         1 UNK         0.0889 
     84 H84       -49.2450  -28.9497   10.0216 H         1 UNK         0.0889 
     85 H85       -50.7341  -28.9775    6.8153 H         1 UNK         0.3028 
     86 H86       -48.7393  -30.7010    5.6007 H         1 UNK         0.0864 
     87 H87       -51.0523  -30.6174    4.7248 H         1 UNK         0.0720 
     88 H88       -49.8582  -30.2786    3.5161 H         1 UNK         0.0720 
     89 H89       -53.1760  -29.6392    4.2293 H         1 UNK         0.0814 
     90 H90       -53.5375  -27.9625    3.9265 H         1 UNK         0.0814 
     91 H91       -53.0646  -26.2247    5.7359 H         1 UNK         0.1469 
     92 H92       -53.5441  -27.6531    9.7519 H         1 UNK         0.1381 
     93 H93       -53.0930  -30.4361    6.5223 H         1 UNK         0.1206 
     94 H94       -52.8214  -31.1697    8.8258 H         1 UNK         0.0813 
     95 H95       -52.8998  -30.0529   10.1523 H         1 UNK         0.0813 
     96 H96       -56.7470  -29.6765   10.7111 H         1 UNK         0.0638 
     97 H97       -55.2839  -28.7479   10.6767 H         1 UNK         0.0638 
     98 H98       -55.4570  -31.3585   12.2677 H         1 UNK         0.0568 
     99 H99       -53.3311  -31.8638   12.8254 H         1 UNK         0.3450 
    100 H100      -52.1065  -30.6788   13.1954 H         1 UNK         0.3450 
    101 H101      -56.7401  -28.8657   13.0417 H         1 UNK         0.2987 
    102 H102      -58.4602  -29.5574   14.9368 H         1 UNK         0.0766 
    103 H103      -57.9642  -31.1932   16.7242 H         1 UNK         0.0798 
    104 H104      -58.2927  -29.6183   17.4267 H         1 UNK         0.0798 
    105 H105      -56.6347  -30.2059   17.3118 H         1 UNK         0.0798 
    106 H106      -57.8403  -27.4549   15.2510 H         1 UNK         0.3198 
    107 H107      -56.3365  -25.6569   15.1204 H         1 UNK         0.0843 
    108 H108      -56.6835  -24.4658   17.3073 H         1 UNK         0.0831 
    109 H109      -56.2467  -25.9274   18.1895 H         1 UNK         0.0831 
    110 H110      -57.7171  -25.8792   17.2274 H         1 UNK         0.0831 
    111 H111      -53.8377  -26.3176   16.4425 H         1 UNK         0.3133 
    112 H112      -52.3457  -23.2812   15.2564 H         1 UNK         0.0566 
    113 H113      -51.2175  -23.2401   17.4614 H         1 UNK         0.0814 
    114 H114      -52.4739  -24.2695   18.1502 H         1 UNK         0.0814 
    115 H115      -52.8694  -22.6543   17.5865 H         1 UNK         0.0814 
    116 H116      -51.1645  -25.0017   14.7120 H         1 UNK         0.3091 
    117 H117      -49.9166  -27.8516   16.4213 H         1 UNK         0.0702 
    118 H118      -49.9736  -28.7016   14.0882 H         1 UNK         0.0785 
    119 H119      -51.1135  -27.4380   13.6298 H         1 UNK         0.0785 
    120 H120      -51.5904  -28.6799   14.7792 H         1 UNK         0.0785 
    121 H121      -48.9393  -26.3405   14.1919 H         1 UNK         0.2998 
    122 H122      -46.8971  -24.0953   16.1247 H         1 UNK         0.0697 
    123 H123      -46.2533  -26.3884   14.1954 H         1 UNK         0.0825 
    124 H124      -45.6032  -26.2054   15.8181 H         1 UNK         0.0825 
    125 H125      -45.2012  -25.0281   14.5780 H         1 UNK         0.0825 
    126 H126      -47.3174  -24.2885   13.3155 H         1 UNK         0.3029 
    127 H127      -50.1073  -22.0346   13.1568 H         1 UNK         0.0897 
    128 H128      -47.1954  -21.7665   12.2381 H         1 UNK         0.0792 
    129 H129      -48.0608  -20.6057   13.2350 H         1 UNK         0.0792 
    130 H130      -48.5750  -20.8896   11.5795 H         1 UNK         0.0792 
    131 H131      -48.7680  -23.3580   11.0583 H         1 UNK         0.3086 
    132 H132      -50.6693  -26.4337   11.1808 H         1 UNK         0.0583 
    133 H133      -50.6157  -24.0448    9.2603 H         1 UNK         0.1020 
    134 H134      -50.7936  -25.6992    8.7428 H         1 UNK         0.1020 
    135 H135      -54.5181  -25.0776    8.2719 H         1 UNK         0.0694 
    136 H136      -52.9951  -24.6476    7.5330 H         1 UNK         0.0694 
    137 H137      -48.4959  -25.6890    9.5293 H         1 UNK         0.2989 
    138 H138      -45.8861  -26.9035   11.6677 H         1 UNK         0.1055 
    139 H139      -47.0000  -27.8145    8.9590 H         1 UNK         0.0806 
    140 H140      -45.3639  -28.0960    9.5507 H         1 UNK         0.0806 
    141 H141      -46.7302  -28.8451   10.3561 H         1 UNK         0.0806 
    142 H142      -45.9286  -25.5598    9.1156 H         1 UNK         0.3061 
    143 H143      -45.5540  -22.2604   10.4043 H         1 UNK         0.0734 
    144 H144      -43.5412  -24.1182    9.0206 H         1 UNK         0.0832 
    145 H145      -43.4898  -22.3546    9.0330 H         1 UNK         0.0832 
    146 H146      -43.2642  -23.2515   10.5244 H         1 UNK         0.0832 
    147 H147      -45.5308  -23.2944    7.7434 H         1 UNK         0.3156 
    148 H148      -49.0506  -23.0593    7.1584 H         1 UNK         0.0589 
    149 H149      -48.1885  -21.6538    5.3186 H         1 UNK         0.0808 
    150 H150      -48.0420  -20.7919    6.8399 H         1 UNK         0.0808 
    151 H151      -46.6172  -21.5158    6.1076 H         1 UNK         0.0808 
    152 H152      -47.0152  -23.9169    5.4150 H         1 UNK         0.3098 
    153 H153      -47.2514  -26.1284    4.6651 H         1 UNK         0.0720 
    154 H154      -45.0518  -25.9313    5.9125 H         1 UNK         0.0791 
    155 H155      -45.3016  -27.5705    5.3419 H         1 UNK         0.0791 
    156 H156      -45.5730  -27.1800    7.0363 H         1 UNK         0.0791 
    157 H157      -48.6503  -27.5201    6.6762 H         1 UNK         0.3028 
@<TRIPOS>BOND
     1    1    2 1    
     2    1   82 1    
     3    1   83 1    
     4    1   84 1    
     5    2    3 2    
     6    2    4 am   BACKBONE|DICT|INTERRES
     7    4    5 1    
     8    4   85 1    
     9    5    6 1    
    10    5   80 1    
    11    5   86 1    
    12    6    7 1    
    13    6   87 1    
    14    6   88 1    
    15    7    8 1    
    16    8    9 1    
    17    8   89 1    
    18    8   90 1    
    19    9   10 ar   
    20    9   14 ar   
    21   10   11 ar   
    22   10   91 1    
    23   11   12 ar   
    24   11   58 1    
    25   12   13 ar   
    26   12   92 1    
    27   13   14 ar   
    28   13   15 1    
    29   14   93 1    
    30   15   16 1    
    31   15   94 1    
    32   15   95 1    
    33   16   17 1    
    34   17   18 1    
    35   17   96 1    
    36   17   97 1    
    37   18   19 1    
    38   18   22 1    
    39   18   98 1    
    40   19   20 am   BACKBONE|DICT|INTERRES
    41   19   21 2    
    42   20   99 1    
    43   20  100 1    
    44   22   23 am   BACKBONE|DICT|INTERRES
    45   22  101 1    
    46   23   24 2    
    47   23   25 1    
    48   25   26 1    
    49   25   27 1    
    50   25  102 1    
    51   26  103 1    
    52   26  104 1    
    53   26  105 1    
    54   27   28 am   BACKBONE|DICT|INTERRES
    55   27  106 1    
    56   28   29 2    
    57   28   30 1    
    58   30   31 1    
    59   30   32 1    
    60   30  107 1    
    61   31  108 1    
    62   31  109 1    
    63   31  110 1    
    64   32   33 am   BACKBONE|DICT|INTERRES
    65   32  111 1    
    66   33   34 2    
    67   33   35 1    
    68   35   36 1    
    69   35   37 1    
    70   35  112 1    
    71   36  113 1    
    72   36  114 1    
    73   36  115 1    
    74   37   38 am   BACKBONE|DICT|INTERRES
    75   37  116 1    
    76   38   39 2    
    77   38   40 1    
    78   40   41 1    
    79   40   42 1    
    80   40  117 1    
    81   41  118 1    
    82   41  119 1    
    83   41  120 1    
    84   42   43 am   BACKBONE|DICT|INTERRES
    85   42  121 1    
    86   43   44 2    
    87   43   45 1    
    88   45   46 1    
    89   45   47 1    
    90   45  122 1    
    91   46  123 1    
    92   46  124 1    
    93   46  125 1    
    94   47   48 am   BACKBONE|DICT|INTERRES
    95   47  126 1    
    96   48   49 2    
    97   48   50 1    
    98   50   51 1    
    99   50   52 1    
   100   50  127 1    
   101   51  128 1    
   102   51  129 1    
   103   51  130 1    
   104   52   53 am   BACKBONE|DICT|INTERRES
   105   52  131 1    
   106   53   54 2    
   107   53   55 1    
   108   55   56 1    
   109   55   59 1    
   110   55  132 1    
   111   56   57 1    
   112   56  133 1    
   113   56  134 1    
   114   57   58 1    
   115   58  135 1    
   116   58  136 1    
   117   59   60 am   BACKBONE|DICT|INTERRES
   118   59  137 1    
   119   60   61 2    
   120   60   62 1    
   121   62   63 1    
   122   62   64 1    
   123   62  138 1    
   124   63  139 1    
   125   63  140 1    
   126   63  141 1    
   127   64   65 am   BACKBONE|DICT|INTERRES
   128   64  142 1    
   129   65   66 2    
   130   65   67 1    
   131   67   68 1    
   132   67   69 1    
   133   67  143 1    
   134   68  144 1    
   135   68  145 1    
   136   68  146 1    
   137   69   70 am   BACKBONE|DICT|INTERRES
   138   69  147 1    
   139   70   71 2    
   140   70   72 1    
   141   72   73 1    
   142   72   74 1    
   143   72  148 1    
   144   73  149 1    
   145   73  150 1    
   146   73  151 1    
   147   74   75 am   BACKBONE|DICT|INTERRES
   148   74  152 1    
   149   75   76 2    
   150   75   77 1    
   151   77   78 1    
   152   77   79 1    
   153   77  153 1    
   154   78  154 1    
   155   78  155 1    
   156   78  156 1    
   157   79   80 am   BACKBONE|DICT|INTERRES
   158   79  157 1    
   159   80   81 2    
@<TRIPOS>SUBSTRUCTURE
     1 UNK         1 GROUP             0       ****    0 ROOT    
