@<TRIPOS>MOLECULE
3R207
157   159    1
SMALL
USER_CHARGES


@<TRIPOS>ATOM
      1 CA        -45.6786  -31.1617    5.2653 C.3       0 UNK        -0.1975 
      2 C         -46.5944  -30.0012    5.6237 C.2       0 UNK         0.4852 
      3 O         -46.2870  -29.2489    6.5476 O.2       0 UNK        -0.5216 
      4 N         -47.7050  -29.8466    4.8888 N.am      1 UNK        -0.4461 
      5 CA        -48.7772  -28.8448    5.0309 C.3       1 UNK         0.0864 
      6 C6        -49.5012  -28.8423    6.4035 C.3       14 UNK        -0.0898 
      7 S7        -50.0124  -30.4728    7.0352 S.3       14 UNK        -0.2598 
      8 C8        -50.4498  -30.0266    8.7504 C.3       14 UNK         0.0286 
      9 C9        -51.8218  -29.3706    8.8240 C.ar      14 UNK        -0.0844 
     10 C10       -51.9732  -28.0050    8.5621 C.ar      14 UNK        -0.0881 
     11 C11       -53.2391  -27.4119    8.5745 C.ar      14 UNK        -0.0643 
     12 C12       -54.3569  -28.1927    8.8854 C.ar      14 UNK        -0.0930 
     13 C13       -54.2170  -29.5559    9.1655 C.ar      14 UNK        -0.0827 
     14 C14       -52.9474  -30.1387    9.1330 C.ar      14 UNK        -0.1249 
     15 C15       -55.4420  -30.4081    9.4635 C.3       14 UNK         0.0141 
     16 S16       -56.1556  -30.0382   11.0938 S.3       14 UNK        -0.2313 
     17 C17       -54.8448  -30.6373   12.2139 C.3       14 UNK        -0.0915 
     18 CA        -55.2836  -30.5730   13.7001 C.3       13 UNK         0.0968 
     19 C         -54.2278  -31.2159   14.6452 C.2       13 UNK         0.5732 
     20 N         -53.6272  -30.4839   15.5777 N.am      13 UNK        -0.7310 
     21 O         -53.9608  -32.4106   14.5400 O.2       13 UNK        -0.5035 
     22 N         -55.6778  -29.2097   14.0806 N.am      13 UNK        -0.4233 
     23 C         -56.5630  -28.9039   15.0355 C.2       13 UNK         0.4989 
     24 O         -57.1643  -29.7467   15.7037 O.2       13 UNK        -0.4996 
     25 CA        -56.8304  -27.4112   15.2902 C.3       12 UNK         0.0216 
     26 CB        -56.7644  -27.0850   16.7935 C.3       12 UNK        -0.1964 
     27 N         -55.8656  -26.5586   14.5930 N.am      12 UNK        -0.4276 
     28 C         -56.1495  -25.6469   13.6518 C.2       12 UNK         0.5020 
     29 O         -57.2757  -25.4883   13.1774 O.2       12 UNK        -0.5489 
     30 CA        -54.9817  -24.7557   13.1631 C.3       11 UNK         0.0294 
     31 CB        -55.4452  -23.3469   12.7400 C.3       11 UNK        -0.2019 
     32 N         -53.8682  -24.6678   14.1181 N.am      11 UNK        -0.4493 
     33 C         -53.9218  -24.2836   15.4043 C.2       11 UNK         0.4932 
     34 O         -54.9086  -23.7564   15.9199 O.2       11 UNK        -0.5029 
     35 CA        -52.6893  -24.5927   16.2778 C.3       10 UNK         0.0280 
     36 CB        -53.0760  -24.9111   17.7374 C.3       10 UNK        -0.1976 
     37 N         -51.8217  -25.6522   15.7433 N.am      10 UNK        -0.4242 
     38 C         -52.1326  -26.9319   15.4701 C.2       10 UNK         0.5072 
     39 O         -53.2611  -27.4073   15.6270 O.2       10 UNK        -0.5224 
     40 CA        -51.0280  -27.8319   14.8733 C.3       9 UNK         0.0343 
     41 CB        -51.4759  -28.4190   13.5222 C.3       9 UNK        -0.2003 
     42 N         -49.7463  -27.1482   14.6779 N.am      9 UNK        -0.4272 
     43 C         -48.8578  -26.8559   15.6375 C.2       9 UNK         0.4988 
     44 O         -48.9680  -27.2209   16.8078 O.2       9 UNK        -0.5108 
     45 CA        -47.6766  -25.9521   15.2328 C.3       8 UNK         0.0248 
     46 CB        -46.5154  -26.7888   14.6738 C.3       8 UNK        -0.2001 
     47 N         -48.0552  -24.9103   14.2678 N.am      8 UNK        -0.4140 
     48 C         -48.9436  -23.9358   14.5184 C.2       8 UNK         0.5028 
     49 O         -49.4808  -23.7739   15.6134 O.2       8 UNK        -0.5428 
     50 CA        -49.3560  -23.0267   13.3486 C.3       7 UNK         0.0264 
     51 CB        -48.3263  -21.9079   13.1273 C.3       7 UNK        -0.1988 
     52 N         -49.5707  -23.7654   12.1024 N.am      7 UNK        -0.4454 
     53 C         -50.5235  -24.6922   11.9178 C.2       7 UNK         0.5027 
     54 O         -51.3652  -24.9825   12.7682 O.2       7 UNK        -0.5083 
     55 CA        -50.5003  -25.4642   10.5806 C.3       6 UNK         0.0844 
     56 C56       -51.2060  -24.6800    9.4487 C.3       14 UNK        -0.0967 
     57 S57       -53.0247  -24.8092    9.5580 S.3       14 UNK        -0.2604 
     58 C58       -53.4117  -25.9473    8.1909 C.3       14 UNK         0.0134 
     59 N         -49.1414  -25.8713   10.2094 N.am      6 UNK        -0.4116 
     60 C         -48.3777  -26.7013   10.9352 C.2       5 UNK         0.5034 
     61 O         -48.7719  -27.2933   11.9381 O.2       5 UNK        -0.5045 
     62 CA        -46.9083  -26.8476   10.5140 C.3       5 UNK         0.0224 
     63 CB        -46.7414  -27.9334    9.4449 C.3       5 UNK        -0.1978 
     64 N         -46.3490  -25.5830   10.0334 N.am      5 UNK        -0.4737 
     65 C         -46.0618  -24.5458   10.8316 C.2       4 UNK         0.5027 
     66 O         -46.1857  -24.5759   12.0552 O.2       4 UNK        -0.5211 
     67 CA        -45.6030  -23.2469   10.1471 C.3       4 UNK         0.0297 
     68 CB        -44.0901  -23.2838    9.8809 C.3       4 UNK        -0.1993 
     69 N         -46.3169  -22.9797    8.8949 N.am      4 UNK        -0.4486 
     70 C         -47.6309  -22.7260    8.8082 C.2       3 UNK         0.4961 
     71 O         -48.3775  -22.6493    9.7825 O.2       3 UNK        -0.5105 
     72 CA        -48.2251  -22.5886    7.3950 C.3       3 UNK         0.0299 
     73 CB        -48.1349  -21.1328    6.9122 C.3       3 UNK        -0.1972 
     74 N         -47.6000  -23.4776    6.4085 N.am      3 UNK        -0.4305 
     75 C         -47.6029  -24.8154    6.4836 C.2       2 UNK         0.5006 
     76 O         -48.1378  -25.4448    7.4020 O.2       2 UNK        -0.5106 
     77 CA        -46.8164  -25.5582    5.3896 C.3       2 UNK         0.0296 
     78 CB        -45.3108  -25.5246    5.7026 C.3       2 UNK        -0.2002 
     79 N         -47.2398  -26.9531    5.3090 N.am      2 UNK        -0.4032 
     80 C         -48.3439  -27.3993    4.7012 C.2       1 UNK         0.5000 
     81 O         -49.0328  -26.7143    3.9425 O.2       1 UNK        -0.5238 
     82 H82       -46.0641  -31.7441    4.4287 H         1 UNK         0.0889 
     83 H83       -45.5693  -31.8281    6.1205 H         1 UNK         0.0889 
     84 H84       -44.6910  -30.7897    4.9944 H         1 UNK         0.0889 
     85 H85       -47.8599  -30.5003    4.1338 H         1 UNK         0.3028 
     86 H86       -49.5185  -29.1213    4.2792 H         1 UNK         0.0864 
     87 H87       -48.8777  -28.3732    7.1643 H         1 UNK         0.0720 
     88 H88       -50.3973  -28.2262    6.3213 H         1 UNK         0.0720 
     89 H89       -50.4362  -30.9313    9.3602 H         1 UNK         0.0814 
     90 H90       -49.6920  -29.3673    9.1764 H         1 UNK         0.0814 
     91 H91       -51.1059  -27.4074    8.3232 H         1 UNK         0.1469 
     92 H92       -55.3414  -27.7451    8.8948 H         1 UNK         0.1381 
     93 H93       -52.8363  -31.1959    9.3327 H         1 UNK         0.1206 
     94 H94       -55.2032  -31.4714    9.4073 H         1 UNK         0.0813 
     95 H95       -56.1987  -30.2261    8.6991 H         1 UNK         0.0813 
     96 H96       -53.9451  -30.0418   12.0510 H         1 UNK         0.0638 
     97 H97       -54.5966  -31.6617   11.9298 H         1 UNK         0.0638 
     98 H98       -56.1682  -31.2061   13.7927 H         1 UNK         0.0568 
     99 H99       -53.8087  -29.4920   15.6584 H         1 UNK         0.3450 
    100 H100      -52.9593  -30.9247   16.1888 H         1 UNK         0.3450 
    101 H101      -55.2369  -28.4592   13.5724 H         1 UNK         0.2987 
    102 H102      -57.8432  -27.2076   14.9375 H         1 UNK         0.0766 
    103 H103      -56.9513  -26.0265   16.9767 H         1 UNK         0.0798 
    104 H104      -55.7875  -27.3284   17.2139 H         1 UNK         0.0798 
    105 H105      -57.5125  -27.6471   17.3539 H         1 UNK         0.0798 
    106 H106      -54.9042  -26.6392   14.9181 H         1 UNK         0.3198 
    107 H107      -54.5782  -25.2503   12.2780 H         1 UNK         0.0843 
    108 H108      -54.6091  -22.7490   12.3773 H         1 UNK         0.0831 
    109 H109      -55.9117  -22.8096   13.5661 H         1 UNK         0.0831 
    110 H110      -56.1757  -23.4011   11.9320 H         1 UNK         0.0831 
    111 H111      -52.9709  -24.9996   13.7663 H         1 UNK         0.3133 
    112 H112      -52.0906  -23.6816   16.2839 H         1 UNK         0.0566 
    113 H113      -52.1942  -25.1132   18.3454 H         1 UNK         0.0814 
    114 H114      -53.5991  -24.0727   18.1988 H         1 UNK         0.0814 
    115 H115      -53.7333  -25.7789   17.8004 H         1 UNK         0.0814 
    116 H116      -50.8771  -25.3459   15.5396 H         1 UNK         0.3091 
    117 H117      -50.8774  -28.6581   15.5707 H         1 UNK         0.0702 
    118 H118      -50.7279  -29.1017   13.1188 H         1 UNK         0.0785 
    119 H119      -51.6499  -27.6408   12.7797 H         1 UNK         0.0785 
    120 H120      -52.4030  -28.9805   13.6199 H         1 UNK         0.0785 
    121 H121      -49.5296  -26.8743   13.7240 H         1 UNK         0.2998 
    122 H122      -47.3246  -25.4471   16.1348 H         1 UNK         0.0697 
    123 H123      -46.8090  -27.3450   13.7841 H         1 UNK         0.0825 
    124 H124      -46.1705  -27.5153   15.4108 H         1 UNK         0.0825 
    125 H125      -45.6627  -26.1620   14.4120 H         1 UNK         0.0825 
    126 H126      -47.5920  -24.9284   13.3629 H         1 UNK         0.3029 
    127 H127      -50.3066  -22.5605   13.6172 H         1 UNK         0.0897 
    128 H128      -48.6447  -21.2269   12.3376 H         1 UNK         0.0792 
    129 H129      -48.1947  -21.3155   14.0337 H         1 UNK         0.0792 
    130 H130      -47.3488  -22.3033   12.8524 H         1 UNK         0.0792 
    131 H131      -48.9680  -23.5234   11.3183 H         1 UNK         0.3086 
    132 H132      -51.0522  -26.3921   10.7431 H         1 UNK         0.0583 
    133 H133      -50.9268  -23.6246    9.4617 H         1 UNK         0.1020 
    134 H134      -50.8824  -25.0457    8.4733 H         1 UNK         0.1020 
    135 H135      -54.4425  -25.7664    7.8824 H         1 UNK         0.0694 
    136 H136      -52.7989  -25.7125    7.3194 H         1 UNK         0.0694 
    137 H137      -48.7457  -25.4627    9.3695 H         1 UNK         0.2989 
    138 H138      -46.3446  -27.1584   11.3962 H         1 UNK         0.1055 
    139 H139      -47.1800  -28.8785    9.7678 H         1 UNK         0.0806 
    140 H140      -45.6892  -28.1222    9.2313 H         1 UNK         0.0806 
    141 H141      -47.2214  -27.6514    8.5103 H         1 UNK         0.0806 
    142 H142      -46.2715  -25.4662    9.0334 H         1 UNK         0.3061 
    143 H143      -45.8091  -22.4218   10.8322 H         1 UNK         0.0734 
    144 H144      -43.7350  -22.3370    9.4736 H         1 UNK         0.0832 
    145 H145      -43.5376  -23.4640   10.8043 H         1 UNK         0.0832 
    146 H146      -43.8193  -24.0750    9.1805 H         1 UNK         0.0832 
    147 H147      -45.7788  -23.0158    8.0417 H         1 UNK         0.3156 
    148 H148      -49.2811  -22.8599    7.4578 H         1 UNK         0.0589 
    149 H149      -47.1006  -20.8060    6.7975 H         1 UNK         0.0808 
    150 H150      -48.6383  -20.9998    5.9544 H         1 UNK         0.0808 
    151 H151      -48.6129  -20.4567    7.6228 H         1 UNK         0.0808 
    152 H152      -47.1348  -23.0346    5.6285 H         1 UNK         0.3098 
    153 H153      -46.9962  -25.0715    4.4287 H         1 UNK         0.0720 
    154 H154      -44.7380  -26.0475    4.9364 H         1 UNK         0.0791 
    155 H155      -45.0868  -25.9938    6.6619 H         1 UNK         0.0791 
    156 H156      -44.9350  -24.5015    5.7412 H         1 UNK         0.0791 
    157 H157      -46.7663  -27.6142    5.9225 H         1 UNK         0.3028 
@<TRIPOS>BOND
     1    1    2 1    
     2    1   82 1    
     3    1   83 1    
     4    1   84 1    
     5    2    3 2    
     6    2    4 am   BACKBONE|DICT|INTERRES
     7    4    5 1    
     8    4   85 1    
     9    5    6 1    
    10    5   80 1    
    11    5   86 1    
    12    6    7 1    
    13    6   87 1    
    14    6   88 1    
    15    7    8 1    
    16    8    9 1    
    17    8   89 1    
    18    8   90 1    
    19    9   10 ar   
    20    9   14 ar   
    21   10   11 ar   
    22   10   91 1    
    23   11   12 ar   
    24   11   58 1    
    25   12   13 ar   
    26   12   92 1    
    27   13   14 ar   
    28   13   15 1    
    29   14   93 1    
    30   15   16 1    
    31   15   94 1    
    32   15   95 1    
    33   16   17 1    
    34   17   18 1    
    35   17   96 1    
    36   17   97 1    
    37   18   19 1    
    38   18   22 1    
    39   18   98 1    
    40   19   20 am   BACKBONE|DICT|INTERRES
    41   19   21 2    
    42   20   99 1    
    43   20  100 1    
    44   22   23 am   BACKBONE|DICT|INTERRES
    45   22  101 1    
    46   23   24 2    
    47   23   25 1    
    48   25   26 1    
    49   25   27 1    
    50   25  102 1    
    51   26  103 1    
    52   26  104 1    
    53   26  105 1    
    54   27   28 am   BACKBONE|DICT|INTERRES
    55   27  106 1    
    56   28   29 2    
    57   28   30 1    
    58   30   31 1    
    59   30   32 1    
    60   30  107 1    
    61   31  108 1    
    62   31  109 1    
    63   31  110 1    
    64   32   33 am   BACKBONE|DICT|INTERRES
    65   32  111 1    
    66   33   34 2    
    67   33   35 1    
    68   35   36 1    
    69   35   37 1    
    70   35  112 1    
    71   36  113 1    
    72   36  114 1    
    73   36  115 1    
    74   37   38 am   BACKBONE|DICT|INTERRES
    75   37  116 1    
    76   38   39 2    
    77   38   40 1    
    78   40   41 1    
    79   40   42 1    
    80   40  117 1    
    81   41  118 1    
    82   41  119 1    
    83   41  120 1    
    84   42   43 am   BACKBONE|DICT|INTERRES
    85   42  121 1    
    86   43   44 2    
    87   43   45 1    
    88   45   46 1    
    89   45   47 1    
    90   45  122 1    
    91   46  123 1    
    92   46  124 1    
    93   46  125 1    
    94   47   48 am   BACKBONE|DICT|INTERRES
    95   47  126 1    
    96   48   49 2    
    97   48   50 1    
    98   50   51 1    
    99   50   52 1    
   100   50  127 1    
   101   51  128 1    
   102   51  129 1    
   103   51  130 1    
   104   52   53 am   BACKBONE|DICT|INTERRES
   105   52  131 1    
   106   53   54 2    
   107   53   55 1    
   108   55   56 1    
   109   55   59 1    
   110   55  132 1    
   111   56   57 1    
   112   56  133 1    
   113   56  134 1    
   114   57   58 1    
   115   58  135 1    
   116   58  136 1    
   117   59   60 am   BACKBONE|DICT|INTERRES
   118   59  137 1    
   119   60   61 2    
   120   60   62 1    
   121   62   63 1    
   122   62   64 1    
   123   62  138 1    
   124   63  139 1    
   125   63  140 1    
   126   63  141 1    
   127   64   65 am   BACKBONE|DICT|INTERRES
   128   64  142 1    
   129   65   66 2    
   130   65   67 1    
   131   67   68 1    
   132   67   69 1    
   133   67  143 1    
   134   68  144 1    
   135   68  145 1    
   136   68  146 1    
   137   69   70 am   BACKBONE|DICT|INTERRES
   138   69  147 1    
   139   70   71 2    
   140   70   72 1    
   141   72   73 1    
   142   72   74 1    
   143   72  148 1    
   144   73  149 1    
   145   73  150 1    
   146   73  151 1    
   147   74   75 am   BACKBONE|DICT|INTERRES
   148   74  152 1    
   149   75   76 2    
   150   75   77 1    
   151   77   78 1    
   152   77   79 1    
   153   77  153 1    
   154   78  154 1    
   155   78  155 1    
   156   78  156 1    
   157   79   80 am   BACKBONE|DICT|INTERRES
   158   79  157 1    
   159   80   81 2    
@<TRIPOS>SUBSTRUCTURE
     1 UNK         1 GROUP             0       ****    0 ROOT    
