@<TRIPOS>MOLECULE
3R207
157   159    1
SMALL
USER_CHARGES


@<TRIPOS>ATOM
      1 CA        -50.6104  -20.6647    4.3985 C.3       0 UNK        -0.1975 
      2 C         -50.1061  -21.4153    5.6221 C.2       0 UNK         0.4852 
      3 O         -49.5384  -20.8004    6.5254 O.2       0 UNK        -0.5216 
      4 N         -50.3074  -22.7400    5.6566 N.am      1 UNK        -0.4461 
      5 CA        -49.9113  -23.6251    6.7623 C.3       1 UNK         0.0864 
      6 C6        -50.6180  -25.0020    6.6788 C.3       14 UNK        -0.0898 
      7 S7        -52.4313  -24.8338    6.7563 S.3       14 UNK        -0.2598 
      8 C8        -52.9626  -26.5714    6.6631 C.3       14 UNK         0.0286 
      9 C9        -52.9574  -27.2585    8.0225 C.ar      14 UNK        -0.0844 
     10 C10       -52.0047  -28.2368    8.3249 C.ar      14 UNK        -0.0881 
     11 C11       -52.0572  -28.9272    9.5412 C.ar      14 UNK        -0.0643 
     12 C12       -53.0598  -28.6220   10.4649 C.ar      14 UNK        -0.0930 
     13 C13       -54.0144  -27.6429   10.1760 C.ar      14 UNK        -0.0827 
     14 C14       -53.9525  -26.9590    8.9581 C.ar      14 UNK        -0.1249 
     15 C15       -55.1259  -27.3427   11.1716 C.3       14 UNK         0.0141 
     16 S16       -56.7697  -27.7988   10.5288 S.3       14 UNK        -0.2313 
     17 C17       -56.6369  -29.6159   10.4016 C.3       14 UNK        -0.0915 
     18 CA        -57.7097  -30.3657   11.2455 C.3       13 UNK         0.0968 
     19 C         -57.7400  -31.8982   10.9518 C.2       13 UNK         0.5732 
     20 N         -58.0530  -32.7522   11.9194 N.am      13 UNK        -0.7310 
     21 O         -57.5148  -32.3240    9.8210 O.2       13 UNK        -0.5035 
     22 N         -57.6808  -30.0110   12.6780 N.am      13 UNK        -0.4233 
     23 C         -56.6716  -30.2389   13.5279 C.2       13 UNK         0.4989 
     24 O         -55.6155  -30.7987   13.2229 O.2       13 UNK        -0.4996 
     25 CA        -56.9095  -29.8064   14.9857 C.3       12 UNK         0.0216 
     26 CB        -57.5710  -30.9427   15.7834 C.3       12 UNK        -0.1964 
     27 N         -55.6568  -29.4270   15.6420 N.am      12 UNK        -0.4276 
     28 C         -54.9728  -28.3115   15.3623 C.2       12 UNK         0.5020 
     29 O         -55.3829  -27.4357   14.5959 O.2       12 UNK        -0.5489 
     30 CA        -53.5922  -28.1778   16.0334 C.3       11 UNK         0.0294 
     31 CB        -52.5901  -29.1598   15.4010 C.3       11 UNK        -0.2019 
     32 N         -53.0549  -26.8211   15.9143 N.am      11 UNK        -0.4493 
     33 C         -53.5438  -25.7459   16.5473 C.2       11 UNK         0.4932 
     34 O         -54.4280  -25.7980   17.4055 O.2       11 UNK        -0.5029 
     35 CA        -52.9291  -24.3925   16.1454 C.3       10 UNK         0.0280 
     36 CB        -53.4536  -23.2057   16.9822 C.3       10 UNK        -0.1976 
     37 N         -51.4644  -24.4304   16.1398 N.am      10 UNK        -0.4242 
     38 C         -50.6450  -24.6589   17.1782 C.2       10 UNK         0.5072 
     39 O         -51.0288  -24.8290   18.3364 O.2       10 UNK        -0.5224 
     40 CA        -49.1333  -24.7257   16.8853 C.3       9 UNK         0.0343 
     41 CB        -48.6276  -26.1707   17.0345 C.3       9 UNK        -0.2003 
     42 N         -48.7676  -24.2386   15.5537 N.am      9 UNK        -0.4272 
     43 C         -48.7784  -22.9587   15.1581 C.2       9 UNK         0.4988 
     44 O         -49.0315  -22.0109   15.9019 O.2       9 UNK        -0.5108 
     45 CA        -48.4968  -22.7017   13.6676 C.3       8 UNK         0.0248 
     46 CB        -46.9841  -22.6436   13.3982 C.3       8 UNK        -0.2001 
     47 N         -49.1175  -23.7064   12.7966 N.am      8 UNK        -0.4140 
     48 C         -50.4388  -23.8387   12.6065 C.2       8 UNK         0.5028 
     49 O         -51.2813  -23.1108   13.1309 O.2       8 UNK        -0.5428 
     50 CA        -50.9041  -24.9982   11.7102 C.3       7 UNK         0.0264 
     51 CB        -50.8682  -24.5989   10.2313 C.3       7 UNK        -0.1988 
     52 N         -50.1181  -26.2170   11.9058 N.am      7 UNK        -0.4454 
     53 C         -50.1953  -26.9777   13.0052 C.2       7 UNK         0.5027 
     54 O         -50.9417  -26.7287   13.9541 O.2       7 UNK        -0.5083 
     55 CA        -49.2518  -28.1970   13.0822 C.3       6 UNK         0.0844 
     56 C56       -49.8349  -29.4232   12.3300 C.3       14 UNK        -0.0967 
     57 S57       -49.5136  -29.4035   10.5274 S.3       14 UNK        -0.2604 
     58 C58       -51.0635  -30.0412    9.8293 C.3       14 UNK         0.0134 
     59 N         -47.8735  -27.9083   12.6656 N.am      6 UNK        -0.4116 
     60 C         -47.0885  -26.9155   13.1010 C.2       5 UNK         0.5034 
     61 O         -47.4288  -26.1107   13.9650 O.2       5 UNK        -0.5045 
     62 CA        -45.6894  -26.7709   12.4724 C.3       5 UNK         0.0224 
     63 CB        -44.6020  -27.0680   13.5182 C.3       5 UNK        -0.1978 
     64 N         -45.4434  -27.5950   11.2815 N.am      5 UNK        -0.4737 
     65 C         -46.0457  -27.4429   10.0953 C.2       4 UNK         0.5027 
     66 O         -46.9516  -26.6340    9.8849 O.2       4 UNK        -0.5211 
     67 CA        -45.5619  -28.3652    8.9702 C.3       4 UNK         0.0297 
     68 CB        -46.0199  -29.8211    9.1989 C.3       4 UNK        -0.1993 
     69 N         -46.0640  -27.8592    7.6955 N.am      4 UNK        -0.4486 
     70 C         -45.6704  -28.2642    6.4827 C.2       3 UNK         0.4961 
     71 O         -44.8132  -29.1279    6.2915 O.2       3 UNK        -0.5105 
     72 CA        -46.3436  -27.6013    5.2677 C.3       3 UNK         0.0299 
     73 CB        -47.6504  -28.3333    4.9183 C.3       3 UNK        -0.1972 
     74 N         -46.6219  -26.1717    5.4298 N.am      3 UNK        -0.4305 
     75 C         -45.7049  -25.2110    5.6219 C.2       2 UNK         0.5006 
     76 O         -44.4978  -25.4303    5.7303 O.2       2 UNK        -0.5106 
     77 CA        -46.2015  -23.7517    5.6673 C.3       2 UNK         0.0296 
     78 CB        -45.7094  -22.9759    4.4331 C.3       2 UNK        -0.2002 
     79 N         -47.6596  -23.6196    5.7536 N.am      2 UNK        -0.4032 
     80 C         -48.3822  -23.8115    6.8671 C.2       1 UNK         0.5000 
     81 O         -47.8871  -24.1331    7.9463 O.2       1 UNK        -0.5238 
     82 H82       -49.7812  -20.1691    3.8942 H         1 UNK         0.0889 
     83 H83       -51.0948  -21.3288    3.6829 H         1 UNK         0.0889 
     84 H84       -51.3317  -19.9042    4.6965 H         1 UNK         0.0889 
     85 H85       -50.8121  -23.1848    4.9025 H         1 UNK         0.3028 
     86 H86       -50.2245  -23.1433    7.6911 H         1 UNK         0.0864 
     87 H87       -50.3539  -25.5161    5.7528 H         1 UNK         0.0720 
     88 H88       -50.2995  -25.6548    7.4938 H         1 UNK         0.0720 
     89 H89       -52.3396  -27.1107    5.9479 H         1 UNK         0.0814 
     90 H90       -53.9757  -26.6013    6.2594 H         1 UNK         0.0814 
     91 H91       -51.2370  -28.4828    7.6041 H         1 UNK         0.1469 
     92 H92       -53.1124  -29.1638   11.3993 H         1 UNK         0.1381 
     93 H93       -54.6981  -26.2105    8.7264 H         1 UNK         0.1206 
     94 H94       -55.1167  -26.2792   11.4134 H         1 UNK         0.0813 
     95 H95       -54.9551  -27.8742   12.1075 H         1 UNK         0.0813 
     96 H96       -56.7407  -29.8616    9.3435 H         1 UNK         0.0638 
     97 H97       -55.6356  -29.9416   10.6846 H         1 UNK         0.0638 
     98 H98       -58.6809  -30.0172   10.8932 H         1 UNK         0.0568 
     99 H99       -58.0820  -33.7384   11.7145 H         1 UNK         0.3450 
    100 H100      -58.2533  -32.4227   12.8491 H         1 UNK         0.3450 
    101 H101      -58.5171  -29.5652   13.0263 H         1 UNK         0.2987 
    102 H102      -57.5755  -28.9404   14.9926 H         1 UNK         0.0766 
    103 H103      -58.5315  -31.2210   15.3476 H         1 UNK         0.0798 
    104 H104      -57.7615  -30.6453   16.8149 H         1 UNK         0.0798 
    105 H105      -56.9496  -31.8393   15.8016 H         1 UNK         0.0798 
    106 H106      -55.2370  -30.1175   16.2474 H         1 UNK         0.3198 
    107 H107      -53.6984  -28.4110   17.0951 H         1 UNK         0.0843 
    108 H108      -51.5947  -29.0472   15.8312 H         1 UNK         0.0831 
    109 H109      -52.5102  -29.0060   14.3244 H         1 UNK         0.0831 
    110 H110      -52.8948  -30.1950   15.5578 H         1 UNK         0.0831 
    111 H111      -52.3293  -26.6870   15.2126 H         1 UNK         0.3133 
    112 H112      -53.2285  -24.2191   15.1106 H         1 UNK         0.0566 
    113 H113      -54.5356  -23.1098   16.8845 H         1 UNK         0.0814 
    114 H114      -53.2340  -23.3259   18.0434 H         1 UNK         0.0814 
    115 H115      -53.0138  -22.2645   16.6525 H         1 UNK         0.0814 
    116 H116      -51.0368  -24.3221   15.2297 H         1 UNK         0.3091 
    117 H117      -48.6278  -24.1039   17.6270 H         1 UNK         0.0702 
    118 H118      -49.1028  -26.8373   16.3132 H         1 UNK         0.0785 
    119 H119      -48.8400  -26.5612   18.0306 H         1 UNK         0.0785 
    120 H120      -47.5493  -26.2314   16.8855 H         1 UNK         0.0785 
    121 H121      -48.4585  -24.9452   14.8878 H         1 UNK         0.2998 
    122 H122      -48.9238  -21.7293   13.4128 H         1 UNK         0.0697 
    123 H123      -46.7749  -22.4087   12.3544 H         1 UNK         0.0825 
    124 H124      -46.5120  -21.8692   14.0042 H         1 UNK         0.0825 
    125 H125      -46.4905  -23.5863   13.6363 H         1 UNK         0.0825 
    126 H126      -48.5006  -24.3734   12.3565 H         1 UNK         0.3029 
    127 H127      -51.9422  -25.2191   11.9708 H         1 UNK         0.0897 
    128 H128      -51.3128  -25.3788    9.6142 H         1 UNK         0.0792 
    129 H129      -51.4373  -23.6852   10.0549 H         1 UNK         0.0792 
    130 H130      -49.8491  -24.4285    9.8830 H         1 UNK         0.0792 
    131 H131      -49.4861  -26.4937   11.1657 H         1 UNK         0.3086 
    132 H132      -49.1958  -28.4628   14.1398 H         1 UNK         0.0583 
    133 H133      -49.3816  -30.3329   12.7270 H         1 UNK         0.1020 
    134 H134      -50.9037  -29.5298   12.5226 H         1 UNK         0.1020 
    135 H135      -50.8328  -30.5677    8.9019 H         1 UNK         0.0694 
    136 H136      -51.4968  -30.7879   10.4966 H         1 UNK         0.0694 
    137 H137      -47.5171  -28.4925   11.9237 H         1 UNK         0.2989 
    138 H138      -45.5947  -25.7248   12.1724 H         1 UNK         0.1055 
    139 H139      -44.7271  -26.4422   14.4035 H         1 UNK         0.0806 
    140 H140      -44.6323  -28.1072   13.8482 H         1 UNK         0.0806 
    141 H141      -43.6054  -26.8677   13.1244 H         1 UNK         0.0806 
    142 H142      -44.7205  -28.2962   11.3667 H         1 UNK         0.3061 
    143 H143      -44.4707  -28.3253    8.9538 H         1 UNK         0.0734 
    144 H144      -45.5257  -30.5058    8.5101 H         1 UNK         0.0832 
    145 H145      -45.7875  -30.1667   10.2067 H         1 UNK         0.0832 
    146 H146      -47.0937  -29.9303    9.0529 H         1 UNK         0.0832 
    147 H147      -46.7423  -27.1111    7.7900 H         1 UNK         0.3156 
    148 H148      -45.6613  -27.7041    4.4212 H         1 UNK         0.0589 
    149 H149      -48.0884  -27.9495    3.9966 H         1 UNK         0.0808 
    150 H150      -47.4719  -29.3993    4.7690 H         1 UNK         0.0808 
    151 H151      -48.3935  -28.2366    5.7111 H         1 UNK         0.0808 
    152 H152      -47.5852  -25.8882    5.3408 H         1 UNK         0.3098 
    153 H153      -45.7614  -23.2910    6.5545 H         1 UNK         0.0720 
    154 H154      -46.1130  -23.3895    3.5080 H         1 UNK         0.0791 
    155 H155      -45.9948  -21.9249    4.4852 H         1 UNK         0.0791 
    156 H156      -44.6216  -23.0094    4.3571 H         1 UNK         0.0791 
    157 H157      -48.1445  -23.3451    4.9113 H         1 UNK         0.3028 
@<TRIPOS>BOND
     1    1    2 1    
     2    1   82 1    
     3    1   83 1    
     4    1   84 1    
     5    2    3 2    
     6    2    4 am   BACKBONE|DICT|INTERRES
     7    4    5 1    
     8    4   85 1    
     9    5    6 1    
    10    5   80 1    
    11    5   86 1    
    12    6    7 1    
    13    6   87 1    
    14    6   88 1    
    15    7    8 1    
    16    8    9 1    
    17    8   89 1    
    18    8   90 1    
    19    9   10 ar   
    20    9   14 ar   
    21   10   11 ar   
    22   10   91 1    
    23   11   12 ar   
    24   11   58 1    
    25   12   13 ar   
    26   12   92 1    
    27   13   14 ar   
    28   13   15 1    
    29   14   93 1    
    30   15   16 1    
    31   15   94 1    
    32   15   95 1    
    33   16   17 1    
    34   17   18 1    
    35   17   96 1    
    36   17   97 1    
    37   18   19 1    
    38   18   22 1    
    39   18   98 1    
    40   19   20 am   BACKBONE|DICT|INTERRES
    41   19   21 2    
    42   20   99 1    
    43   20  100 1    
    44   22   23 am   BACKBONE|DICT|INTERRES
    45   22  101 1    
    46   23   24 2    
    47   23   25 1    
    48   25   26 1    
    49   25   27 1    
    50   25  102 1    
    51   26  103 1    
    52   26  104 1    
    53   26  105 1    
    54   27   28 am   BACKBONE|DICT|INTERRES
    55   27  106 1    
    56   28   29 2    
    57   28   30 1    
    58   30   31 1    
    59   30   32 1    
    60   30  107 1    
    61   31  108 1    
    62   31  109 1    
    63   31  110 1    
    64   32   33 am   BACKBONE|DICT|INTERRES
    65   32  111 1    
    66   33   34 2    
    67   33   35 1    
    68   35   36 1    
    69   35   37 1    
    70   35  112 1    
    71   36  113 1    
    72   36  114 1    
    73   36  115 1    
    74   37   38 am   BACKBONE|DICT|INTERRES
    75   37  116 1    
    76   38   39 2    
    77   38   40 1    
    78   40   41 1    
    79   40   42 1    
    80   40  117 1    
    81   41  118 1    
    82   41  119 1    
    83   41  120 1    
    84   42   43 am   BACKBONE|DICT|INTERRES
    85   42  121 1    
    86   43   44 2    
    87   43   45 1    
    88   45   46 1    
    89   45   47 1    
    90   45  122 1    
    91   46  123 1    
    92   46  124 1    
    93   46  125 1    
    94   47   48 am   BACKBONE|DICT|INTERRES
    95   47  126 1    
    96   48   49 2    
    97   48   50 1    
    98   50   51 1    
    99   50   52 1    
   100   50  127 1    
   101   51  128 1    
   102   51  129 1    
   103   51  130 1    
   104   52   53 am   BACKBONE|DICT|INTERRES
   105   52  131 1    
   106   53   54 2    
   107   53   55 1    
   108   55   56 1    
   109   55   59 1    
   110   55  132 1    
   111   56   57 1    
   112   56  133 1    
   113   56  134 1    
   114   57   58 1    
   115   58  135 1    
   116   58  136 1    
   117   59   60 am   BACKBONE|DICT|INTERRES
   118   59  137 1    
   119   60   61 2    
   120   60   62 1    
   121   62   63 1    
   122   62   64 1    
   123   62  138 1    
   124   63  139 1    
   125   63  140 1    
   126   63  141 1    
   127   64   65 am   BACKBONE|DICT|INTERRES
   128   64  142 1    
   129   65   66 2    
   130   65   67 1    
   131   67   68 1    
   132   67   69 1    
   133   67  143 1    
   134   68  144 1    
   135   68  145 1    
   136   68  146 1    
   137   69   70 am   BACKBONE|DICT|INTERRES
   138   69  147 1    
   139   70   71 2    
   140   70   72 1    
   141   72   73 1    
   142   72   74 1    
   143   72  148 1    
   144   73  149 1    
   145   73  150 1    
   146   73  151 1    
   147   74   75 am   BACKBONE|DICT|INTERRES
   148   74  152 1    
   149   75   76 2    
   150   75   77 1    
   151   77   78 1    
   152   77   79 1    
   153   77  153 1    
   154   78  154 1    
   155   78  155 1    
   156   78  156 1    
   157   79   80 am   BACKBONE|DICT|INTERRES
   158   79  157 1    
   159   80   81 2    
@<TRIPOS>SUBSTRUCTURE
     1 UNK         1 GROUP             0       ****    0 ROOT    
