@<TRIPOS>MOLECULE
3R207
157   159    1
SMALL
USER_CHARGES


@<TRIPOS>ATOM
      1 CA        -50.9068  -32.1118   10.2762 C.3       0 UNK        -0.1975 
      2 C         -49.7378  -31.5222    9.5021 C.2       0 UNK         0.4852 
      3 O         -48.8310  -32.2575    9.1112 O.2       0 UNK        -0.5216 
      4 N         -49.7545  -30.2015    9.2742 N.am      1 UNK        -0.4461 
      5 CA        -48.7282  -29.4697    8.5177 C.3       1 UNK         0.0864 
      6 C6        -49.2831  -28.1180    7.9886 C.3       14 UNK        -0.0898 
      7 S7        -49.4058  -28.0599    6.1680 S.3       14 UNK        -0.2598 
      8 C8        -50.8513  -29.1171    5.8229 C.3       14 UNK         0.0286 
      9 C9        -52.1510  -28.5387    6.3654 C.ar      14 UNK        -0.0844 
     10 C10       -52.8309  -27.5329    5.6711 C.ar      14 UNK        -0.0881 
     11 C11       -54.0338  -27.0151    6.1660 C.ar      14 UNK        -0.0643 
     12 C12       -54.5475  -27.5029    7.3731 C.ar      14 UNK        -0.0930 
     13 C13       -53.8766  -28.5107    8.0732 C.ar      14 UNK        -0.0827 
     14 C14       -52.6911  -29.0347    7.5536 C.ar      14 UNK        -0.1249 
     15 C15       -54.4388  -29.0577    9.3778 C.3       14 UNK         0.0141 
     16 S16       -53.3045  -28.8072   10.7824 S.3       14 UNK        -0.2313 
     17 C17       -53.3820  -26.9987   11.0189 C.3       14 UNK        -0.0915 
     18 CA        -54.3393  -26.5255   12.1463 C.3       13 UNK         0.0968 
     19 C         -55.8294  -26.5520   11.7062 C.2       13 UNK         0.5732 
     20 N         -56.2303  -25.6221   10.8508 N.am      13 UNK        -0.7310 
     21 O         -56.6147  -27.4120   12.1025 O.2       13 UNK        -0.5035 
     22 N         -54.0875  -27.2364   13.4052 N.am      13 UNK        -0.4233 
     23 C         -54.5130  -26.8560   14.6134 C.2       13 UNK         0.4989 
     24 O         -55.1129  -25.8003   14.8204 O.2       13 UNK        -0.4996 
     25 CA        -54.2032  -27.7744   15.8134 C.3       12 UNK         0.0216 
     26 CB        -55.3940  -28.7021   16.1254 C.3       12 UNK        -0.1964 
     27 N         -52.9375  -28.5200   15.7181 N.am      12 UNK        -0.4276 
     28 C         -52.6033  -29.5182   14.8847 C.2       12 UNK         0.5020 
     29 O         -53.3875  -30.0121   14.0750 O.2       12 UNK        -0.5489 
     30 CA        -51.1460  -30.0177   14.9270 C.3       11 UNK         0.0294 
     31 CB        -50.6620  -30.4925   13.5448 C.3       11 UNK        -0.2019 
     32 N         -50.2526  -28.9614   15.4038 N.am      11 UNK        -0.4493 
     33 C         -49.4522  -29.0407   16.4759 C.2       11 UNK         0.4932 
     34 O         -49.2896  -30.0679   17.1346 O.2       11 UNK        -0.5029 
     35 CA        -48.7253  -27.7513   16.9155 C.3       10 UNK         0.0280 
     36 CB        -47.2913  -27.7315   16.3600 C.3       10 UNK        -0.1976 
     37 N         -49.4041  -26.5111   16.5235 N.am      10 UNK        -0.4242 
     38 C         -50.6594  -26.1634   16.8456 C.2       10 UNK         0.5072 
     39 O         -51.3744  -26.8127   17.6092 O.2       10 UNK        -0.5224 
     40 CA        -51.2534  -24.9339   16.1315 C.3       9 UNK         0.0343 
     41 CB        -51.1322  -23.6869   17.0207 C.3       9 UNK        -0.2003 
     42 N         -50.6742  -24.6451   14.8129 N.am      9 UNK        -0.4272 
     43 C         -50.5643  -25.4950   13.7827 C.2       9 UNK         0.4988 
     44 O         -50.9358  -26.6688   13.8208 O.2       9 UNK        -0.5108 
     45 CA        -49.8813  -24.9460   12.5178 C.3       8 UNK         0.0248 
     46 CB        -49.3227  -26.0843   11.6449 C.3       8 UNK        -0.2001 
     47 N         -50.7701  -24.0968   11.7206 N.am      8 UNK        -0.4140 
     48 C         -51.2196  -22.8861   12.0933 C.2       8 UNK         0.5028 
     49 O         -50.8794  -22.3413   13.1458 O.2       8 UNK        -0.5428 
     50 CA        -52.1960  -22.1451   11.1584 C.3       7 UNK         0.0264 
     51 CB        -51.8379  -20.6524   11.0360 C.3       7 UNK        -0.1988 
     52 N         -52.2299  -22.7347    9.8200 N.am      7 UNK        -0.4454 
     53 C         -53.1953  -23.5428    9.3566 C.2       7 UNK         0.5027 
     54 O         -54.2120  -23.8153    9.9959 O.2       7 UNK        -0.5083 
     55 CA        -53.0056  -24.1823    7.9613 C.3       6 UNK         0.0844 
     56 C56       -54.0975  -23.7031    6.9732 C.3       14 UNK        -0.0967 
     57 S57       -53.8897  -24.3723    5.2856 S.3       14 UNK        -0.2604 
     58 C58       -54.7921  -25.9517    5.3806 C.3       14 UNK         0.0134 
     59 N         -51.6523  -24.0308    7.4204 N.am      6 UNK        -0.4116 
     60 C         -50.5655  -24.6249    7.9237 C.2       5 UNK         0.5034 
     61 O         -50.5946  -25.3325    8.9301 O.2       5 UNK        -0.5045 
     62 CA        -49.2133  -24.3382    7.2419 C.3       5 UNK         0.0224 
     63 CB        -49.3032  -23.3866    6.0268 C.3       5 UNK        -0.1978 
     64 N         -48.2199  -23.8398    8.1998 N.am      5 UNK        -0.4737 
     65 C         -48.3444  -22.7952    9.0276 C.2       4 UNK         0.5027 
     66 O         -49.3648  -22.1071    9.1011 O.2       4 UNK        -0.5211 
     67 CA        -47.1192  -22.4563    9.9045 C.3       4 UNK         0.0297 
     68 CB        -47.3746  -21.2306   10.8030 C.3       4 UNK        -0.1993 
     69 N         -46.6475  -23.5586   10.7524 N.am      4 UNK        -0.4486 
     70 C         -46.0363  -24.6850   10.3587 C.2       3 UNK         0.4961 
     71 O         -45.8671  -24.9962    9.1791 O.2       3 UNK        -0.5105 
     72 CA        -45.5125  -25.6251   11.4561 C.3       3 UNK         0.0299 
     73 CB        -45.7484  -25.1299   12.9033 C.3       3 UNK        -0.1972 
     74 N         -46.0895  -26.9560   11.2731 N.am      3 UNK        -0.4305 
     75 C         -45.5530  -28.0928   11.7316 C.2       2 UNK         0.5006 
     76 O         -44.4623  -28.1455   12.3024 O.2       2 UNK        -0.5106 
     77 CA        -46.3644  -29.3940   11.5778 C.3       2 UNK         0.0296 
     78 CB        -46.8823  -29.8615   12.9497 C.3       2 UNK        -0.2002 
     79 N         -47.5006  -29.3333   10.6524 N.am      2 UNK        -0.4032 
     80 C         -47.4130  -29.2966    9.3143 C.2       1 UNK         0.5000 
     81 O         -46.3498  -29.1634    8.7070 O.2       1 UNK        -0.5238 
     82 H82       -50.5437  -32.6496   11.1515 H         1 UNK         0.0889 
     83 H83       -51.4543  -32.8143    9.6486 H         1 UNK         0.0889 
     84 H84       -51.6041  -31.3452   10.6127 H         1 UNK         0.0889 
     85 H85       -50.5292  -29.6493    9.6153 H         1 UNK         0.3028 
     86 H86       -48.4594  -30.0957    7.6637 H         1 UNK         0.0864 
     87 H87       -50.2623  -27.8912    8.4117 H         1 UNK         0.0720 
     88 H88       -48.6542  -27.2776    8.2889 H         1 UNK         0.0720 
     89 H89       -50.9386  -29.2475    4.7433 H         1 UNK         0.0814 
     90 H90       -50.6743  -30.1132    6.2316 H         1 UNK         0.0814 
     91 H91       -52.4261  -27.1534    4.7428 H         1 UNK         0.1469 
     92 H92       -55.4732  -27.1030    7.7639 H         1 UNK         0.1381 
     93 H93       -52.1860  -29.8286    8.0836 H         1 UNK         0.1206 
     94 H94       -55.4070  -28.6115    9.6078 H         1 UNK         0.0813 
     95 H95       -54.6171  -30.1275    9.2616 H         1 UNK         0.0813 
     96 H96       -52.3735  -26.6669   11.2592 H         1 UNK         0.0638 
     97 H97       -53.6206  -26.5173   10.0713 H         1 UNK         0.0638 
     98 H98       -54.1024  -25.4771   12.3393 H         1 UNK         0.0568 
     99 H99       -55.5790  -24.9128   10.5212 H         1 UNK         0.3450 
    100 H100      -57.1885  -25.6124   10.5415 H         1 UNK         0.3450 
    101 H101      -53.6656  -28.1544   13.3181 H         1 UNK         0.2987 
    102 H102      -54.0769  -27.1144   16.6732 H         1 UNK         0.0766 
    103 H103      -55.2008  -29.3150   17.0058 H         1 UNK         0.0798 
    104 H104      -56.2949  -28.1207   16.3258 H         1 UNK         0.0798 
    105 H105      -55.6221  -29.3691   15.2935 H         1 UNK         0.0798 
    106 H106      -52.2125  -28.1762   16.3403 H         1 UNK         0.3198 
    107 H107      -51.1322  -30.8706   15.6086 H         1 UNK         0.0843 
    108 H108      -51.2900  -31.3008   13.1692 H         1 UNK         0.0831 
    109 H109      -49.6438  -30.8754   13.5940 H         1 UNK         0.0831 
    110 H110      -50.6899  -29.6851   12.8116 H         1 UNK         0.0831 
    111 H111      -50.3452  -28.0722   14.9140 H         1 UNK         0.3133 
    112 H112      -48.6724  -27.7642   18.0060 H         1 UNK         0.0566 
    113 H113      -47.2787  -27.6553   15.2722 H         1 UNK         0.0814 
    114 H114      -46.7544  -28.6427   16.6285 H         1 UNK         0.0814 
    115 H115      -46.7211  -26.8935   16.7614 H         1 UNK         0.0814 
    116 H116      -48.9016  -25.9041   15.8934 H         1 UNK         0.3091 
    117 H117      -52.3141  -25.1365   15.9733 H         1 UNK         0.0702 
    118 H118      -51.6434  -22.8323   16.5766 H         1 UNK         0.0785 
    119 H119      -50.0906  -23.4076   17.1842 H         1 UNK         0.0785 
    120 H120      -51.5826  -23.8586   17.9996 H         1 UNK         0.0785 
    121 H121      -50.4318  -23.6767   14.6268 H         1 UNK         0.2998 
    122 H122      -49.0379  -24.3327   12.8393 H         1 UNK         0.0697 
    123 H123      -50.1113  -26.7194   11.2428 H         1 UNK         0.0825 
    124 H124      -48.6624  -26.7274   12.2268 H         1 UNK         0.0825 
    125 H125      -48.7563  -25.6931   10.8019 H         1 UNK         0.0825 
    126 H126      -51.0467  -24.4667   10.8181 H         1 UNK         0.3029 
    127 H127      -53.1817  -22.2123   11.6236 H         1 UNK         0.0897 
    128 H128      -52.5281  -20.1323   10.3717 H         1 UNK         0.0792 
    129 H129      -51.8888  -20.1550   12.0054 H         1 UNK         0.0792 
    130 H130      -50.8282  -20.5088   10.6502 H         1 UNK         0.0792 
    131 H131      -51.3954  -22.5833    9.2602 H         1 UNK         0.3086 
    132 H132      -53.1518  -25.2512    8.1137 H         1 UNK         0.0583 
    133 H133      -55.0904  -23.9691    7.3416 H         1 UNK         0.1020 
    134 H134      -54.0884  -22.6138    6.8992 H         1 UNK         0.1020 
    135 H135      -55.7829  -25.7799    5.8042 H         1 UNK         0.0694 
    136 H136      -54.9563  -26.3184    4.3664 H         1 UNK         0.0694 
    137 H137      -51.5606  -23.4549    6.5970 H         1 UNK         0.2989 
    138 H138      -48.8423  -25.2969    6.8819 H         1 UNK         0.1055 
    139 H139      -48.3252  -23.2566    5.5633 H         1 UNK         0.0806 
    140 H140      -49.6664  -22.3960    6.3041 H         1 UNK         0.0806 
    141 H141      -49.9645  -23.7863    5.2565 H         1 UNK         0.0806 
    142 H142      -47.3561  -24.3739    8.2744 H         1 UNK         0.3061 
    143 H143      -46.3104  -22.1979    9.2179 H         1 UNK         0.0734 
    144 H144      -47.6684  -20.3639   10.2091 H         1 UNK         0.0832 
    145 H145      -48.1746  -21.4176   11.5213 H         1 UNK         0.0832 
    146 H146      -46.4803  -20.9481   11.3585 H         1 UNK         0.0832 
    147 H147      -46.7503  -23.4137   11.7457 H         1 UNK         0.3156 
    148 H148      -44.4344  -25.6910   11.2954 H         1 UNK         0.0589 
    149 H149      -46.8066  -25.0889   13.1576 H         1 UNK         0.0808 
    150 H150      -45.2696  -25.7913   13.6257 H         1 UNK         0.0808 
    151 H151      -45.3198  -24.1396   13.0634 H         1 UNK         0.0808 
    152 H152      -46.9394  -27.0031   10.7310 H         1 UNK         0.3098 
    153 H153      -45.6714  -30.1510   11.2041 H         1 UNK         0.0720 
    154 H154      -47.3129  -30.8609   12.8878 H         1 UNK         0.0791 
    155 H155      -46.0760  -29.9086   13.6833 H         1 UNK         0.0791 
    156 H156      -47.6437  -29.1886   13.3458 H         1 UNK         0.0791 
    157 H157      -48.4167  -29.4538   11.0575 H         1 UNK         0.3028 
@<TRIPOS>BOND
     1    1    2 1    
     2    1   82 1    
     3    1   83 1    
     4    1   84 1    
     5    2    3 2    
     6    2    4 am   BACKBONE|DICT|INTERRES
     7    4    5 1    
     8    4   85 1    
     9    5    6 1    
    10    5   80 1    
    11    5   86 1    
    12    6    7 1    
    13    6   87 1    
    14    6   88 1    
    15    7    8 1    
    16    8    9 1    
    17    8   89 1    
    18    8   90 1    
    19    9   10 ar   
    20    9   14 ar   
    21   10   11 ar   
    22   10   91 1    
    23   11   12 ar   
    24   11   58 1    
    25   12   13 ar   
    26   12   92 1    
    27   13   14 ar   
    28   13   15 1    
    29   14   93 1    
    30   15   16 1    
    31   15   94 1    
    32   15   95 1    
    33   16   17 1    
    34   17   18 1    
    35   17   96 1    
    36   17   97 1    
    37   18   19 1    
    38   18   22 1    
    39   18   98 1    
    40   19   20 am   BACKBONE|DICT|INTERRES
    41   19   21 2    
    42   20   99 1    
    43   20  100 1    
    44   22   23 am   BACKBONE|DICT|INTERRES
    45   22  101 1    
    46   23   24 2    
    47   23   25 1    
    48   25   26 1    
    49   25   27 1    
    50   25  102 1    
    51   26  103 1    
    52   26  104 1    
    53   26  105 1    
    54   27   28 am   BACKBONE|DICT|INTERRES
    55   27  106 1    
    56   28   29 2    
    57   28   30 1    
    58   30   31 1    
    59   30   32 1    
    60   30  107 1    
    61   31  108 1    
    62   31  109 1    
    63   31  110 1    
    64   32   33 am   BACKBONE|DICT|INTERRES
    65   32  111 1    
    66   33   34 2    
    67   33   35 1    
    68   35   36 1    
    69   35   37 1    
    70   35  112 1    
    71   36  113 1    
    72   36  114 1    
    73   36  115 1    
    74   37   38 am   BACKBONE|DICT|INTERRES
    75   37  116 1    
    76   38   39 2    
    77   38   40 1    
    78   40   41 1    
    79   40   42 1    
    80   40  117 1    
    81   41  118 1    
    82   41  119 1    
    83   41  120 1    
    84   42   43 am   BACKBONE|DICT|INTERRES
    85   42  121 1    
    86   43   44 2    
    87   43   45 1    
    88   45   46 1    
    89   45   47 1    
    90   45  122 1    
    91   46  123 1    
    92   46  124 1    
    93   46  125 1    
    94   47   48 am   BACKBONE|DICT|INTERRES
    95   47  126 1    
    96   48   49 2    
    97   48   50 1    
    98   50   51 1    
    99   50   52 1    
   100   50  127 1    
   101   51  128 1    
   102   51  129 1    
   103   51  130 1    
   104   52   53 am   BACKBONE|DICT|INTERRES
   105   52  131 1    
   106   53   54 2    
   107   53   55 1    
   108   55   56 1    
   109   55   59 1    
   110   55  132 1    
   111   56   57 1    
   112   56  133 1    
   113   56  134 1    
   114   57   58 1    
   115   58  135 1    
   116   58  136 1    
   117   59   60 am   BACKBONE|DICT|INTERRES
   118   59  137 1    
   119   60   61 2    
   120   60   62 1    
   121   62   63 1    
   122   62   64 1    
   123   62  138 1    
   124   63  139 1    
   125   63  140 1    
   126   63  141 1    
   127   64   65 am   BACKBONE|DICT|INTERRES
   128   64  142 1    
   129   65   66 2    
   130   65   67 1    
   131   67   68 1    
   132   67   69 1    
   133   67  143 1    
   134   68  144 1    
   135   68  145 1    
   136   68  146 1    
   137   69   70 am   BACKBONE|DICT|INTERRES
   138   69  147 1    
   139   70   71 2    
   140   70   72 1    
   141   72   73 1    
   142   72   74 1    
   143   72  148 1    
   144   73  149 1    
   145   73  150 1    
   146   73  151 1    
   147   74   75 am   BACKBONE|DICT|INTERRES
   148   74  152 1    
   149   75   76 2    
   150   75   77 1    
   151   77   78 1    
   152   77   79 1    
   153   77  153 1    
   154   78  154 1    
   155   78  155 1    
   156   78  156 1    
   157   79   80 am   BACKBONE|DICT|INTERRES
   158   79  157 1    
   159   80   81 2    
@<TRIPOS>SUBSTRUCTURE
     1 UNK         1 GROUP             0       ****    0 ROOT    
