@<TRIPOS>MOLECULE
3R207
157   159    1
SMALL
USER_CHARGES


@<TRIPOS>ATOM
      1 CA        -49.6043  -30.9858    3.3166 C.3       0 UNK        -0.1975 
      2 C         -48.8030  -29.9914    4.1427 C.2       0 UNK         0.4852 
      3 O         -47.5732  -30.0543    4.1482 O.2       0 UNK        -0.5216 
      4 N         -49.4891  -29.0574    4.8171 N.am      1 UNK        -0.4461 
      5 CA        -48.9796  -28.0288    5.7439 C.3       1 UNK         0.0864 
      6 C6        -48.2315  -28.6044    6.9775 C.3       14 UNK        -0.0898 
      7 S7        -49.2160  -29.8103    7.9305 S.3       14 UNK        -0.2598 
      8 C8        -49.6773  -28.8526    9.4080 C.3       14 UNK         0.0286 
      9 C9        -50.9496  -28.0487    9.1891 C.ar      14 UNK        -0.0844 
     10 C10       -50.8989  -26.7732    8.6204 C.ar      14 UNK        -0.0881 
     11 C11       -52.0686  -26.0237    8.4440 C.ar      14 UNK        -0.0643 
     12 C12       -53.2931  -26.5601    8.8583 C.ar      14 UNK        -0.0930 
     13 C13       -53.3569  -27.8388    9.4210 C.ar      14 UNK        -0.0827 
     14 C14       -52.1832  -28.5800    9.5744 C.ar      14 UNK        -0.1249 
     15 C15       -54.6932  -28.4446    9.8245 C.3       14 UNK         0.0141 
     16 S16       -54.9828  -28.3448   11.6193 S.3       14 UNK        -0.2313 
     17 C17       -56.5099  -29.3345   11.7205 C.3       14 UNK        -0.0915 
     18 CA        -57.1946  -29.3191   13.1138 C.3       13 UNK         0.0968 
     19 C         -58.5884  -30.0087   13.0154 C.2       13 UNK         0.5732 
     20 N         -58.7595  -31.2343   13.4989 N.am      13 UNK        -0.7310 
     21 O         -59.5291  -29.4181   12.4886 O.2       13 UNK        -0.5035 
     22 N         -56.3113  -29.8445   14.1717 N.am      13 UNK        -0.4233 
     23 C         -56.5834  -29.8213   15.4853 C.2       13 UNK         0.4989 
     24 O         -57.6070  -29.3294   15.9628 O.2       13 UNK        -0.4996 
     25 CA        -55.5461  -30.4360   16.4399 C.3       12 UNK         0.0216 
     26 CB        -54.5946  -31.4473   15.7677 C.3       12 UNK        -0.1964 
     27 N         -54.7677  -29.3402   17.0043 N.am      12 UNK        -0.4276 
     28 C         -54.9315  -28.8066   18.2227 C.2       12 UNK         0.5020 
     29 O         -55.6482  -29.2966   19.0968 O.2       12 UNK        -0.5489 
     30 CA        -54.1815  -27.4908   18.5218 C.3       11 UNK         0.0294 
     31 CB        -52.8766  -27.7766   19.2816 C.3       11 UNK        -0.2019 
     32 N         -53.8781  -26.7123   17.3166 N.am      11 UNK        -0.4493 
     33 C         -54.8047  -26.1650   16.5132 C.2       11 UNK         0.4932 
     34 O         -55.9981  -26.0964   16.8074 O.2       11 UNK        -0.5029 
     35 CA        -54.3523  -25.6344   15.1373 C.3       10 UNK         0.0280 
     36 CB        -54.3664  -24.0967   15.1320 C.3       10 UNK        -0.1976 
     37 N         -53.0396  -26.1068   14.6794 N.am      10 UNK        -0.4242 
     38 C         -52.6538  -27.3852   14.5455 C.2       10 UNK         0.5072 
     39 O         -53.3904  -28.3469   14.7587 O.2       10 UNK        -0.5224 
     40 CA        -51.1806  -27.6504   14.1932 C.3       9 UNK         0.0343 
     41 CB        -51.0151  -27.8503   12.6836 C.3       9 UNK        -0.2003 
     42 N         -50.2540  -26.6144   14.6579 N.am      9 UNK        -0.4272 
     43 C         -50.0549  -26.2807   15.9425 C.2       9 UNK         0.4988 
     44 O         -50.6693  -26.7809   16.8856 O.2       9 UNK        -0.5108 
     45 CA        -49.0126  -25.1876   16.2137 C.3       8 UNK         0.0248 
     46 CB        -47.5852  -25.7465   16.0889 C.3       8 UNK        -0.2001 
     47 N         -49.1889  -24.0668   15.2909 N.am      8 UNK        -0.4140 
     48 C         -50.0377  -23.0502   15.4963 C.2       8 UNK         0.5028 
     49 O         -50.6845  -22.8939   16.5325 O.2       8 UNK        -0.5428 
     50 CA        -50.2102  -22.0376   14.3491 C.3       7 UNK         0.0264 
     51 CB        -49.2233  -20.8700   14.5086 C.3       7 UNK        -0.1988 
     52 N         -50.0575  -22.6220   13.0130 N.am      7 UNK        -0.4454 
     53 C         -50.8649  -23.5586   12.4926 C.2       7 UNK         0.5027 
     54 O         -51.8261  -24.0386   13.0896 O.2       7 UNK        -0.5083 
     55 CA        -50.5186  -24.0751   11.0837 C.3       6 UNK         0.0844 
     56 C56       -51.1704  -23.1703   10.0069 C.3       14 UNK        -0.0967 
     57 S57       -50.6658  -23.5889    8.3020 S.3       14 UNK        -0.2604 
     58 C58       -52.0345  -24.6614    7.7558 C.3       14 UNK         0.0134 
     59 N         -49.0820  -24.2555   10.8580 N.am      6 UNK        -0.4116 
     60 C         -48.2037  -24.9322   11.6095 C.2       5 UNK         0.5034 
     61 O         -48.4840  -25.4336   12.6997 O.2       5 UNK        -0.5045 
     62 CA        -46.7735  -25.0853   11.0491 C.3       5 UNK         0.0224 
     63 CB        -46.2545  -26.5229   11.2273 C.3       5 UNK        -0.1978 
     64 N         -46.6527  -24.7136    9.6328 N.am      5 UNK        -0.4737 
     65 C         -46.5603  -23.4637    9.1586 C.2       4 UNK         0.5027 
     66 O         -46.5574  -22.4669    9.8807 O.2       4 UNK        -0.5211 
     67 CA        -46.5213  -23.3134    7.6256 C.3       4 UNK         0.0297 
     68 CB        -45.9635  -21.9499    7.1658 C.3       4 UNK        -0.1993 
     69 N         -45.8407  -24.4259    6.9504 N.am      4 UNK        -0.4486 
     70 C         -44.5418  -24.7611    7.0427 C.2       3 UNK         0.4961 
     71 O         -43.7259  -24.1554    7.7380 O.2       3 UNK        -0.5105 
     72 CA        -44.0563  -25.9891    6.2433 C.3       3 UNK         0.0299 
     73 CB        -43.7567  -27.1587    7.1966 C.3       3 UNK        -0.1972 
     74 N         -44.9989  -26.4481    5.2207 N.am      3 UNK        -0.4305 
     75 C         -45.3270  -25.7836    4.1029 C.2       2 UNK         0.5006 
     76 O         -44.7756  -24.7452    3.7374 O.2       2 UNK        -0.5106 
     77 CA        -46.4926  -26.3514    3.2691 C.3       2 UNK         0.0296 
     78 CB        -45.9598  -27.0958    2.0342 C.3       2 UNK        -0.2002 
     79 N         -47.3908  -27.2432    4.0138 N.am      2 UNK        -0.4032 
     80 C         -48.1266  -26.9197    5.0867 C.2       1 UNK         0.5000 
     81 O         -48.1186  -25.7960    5.5927 O.2       1 UNK        -0.5238 
     82 H82       -49.3205  -30.9168    2.2668 H         1 UNK         0.0889 
     83 H83       -50.6770  -30.8084    3.3910 H         1 UNK         0.0889 
     84 H84       -49.4044  -32.0011    3.6580 H         1 UNK         0.0889 
     85 H85       -50.4961  -29.0615    4.7291 H         1 UNK         0.3028 
     86 H86       -49.8735  -27.5225    6.1095 H         1 UNK         0.0864 
     87 H87       -47.9156  -27.7999    7.6436 H         1 UNK         0.0720 
     88 H88       -47.3126  -29.1047    6.6673 H         1 UNK         0.0720 
     89 H89       -48.8614  -28.1979    9.7144 H         1 UNK         0.0814 
     90 H90       -49.8219  -29.5492   10.2351 H         1 UNK         0.0814 
     91 H91       -49.9482  -26.3648    8.3074 H         1 UNK         0.1469 
     92 H92       -54.2029  -25.9918    8.7214 H         1 UNK         0.1381 
     93 H93       -52.2309  -29.5705   10.0060 H         1 UNK         0.1206 
     94 H94       -55.5105  -27.9459    9.3011 H         1 UNK         0.0813 
     95 H95       -54.7228  -29.4897    9.5121 H         1 UNK         0.0813 
     96 H96       -57.1944  -28.9499   10.9613 H         1 UNK         0.0638 
     97 H97       -56.2738  -30.3593   11.4275 H         1 UNK         0.0638 
     98 H98       -57.3940  -28.2768   13.3698 H         1 UNK         0.0568 
     99 H99       -59.6663  -31.6685   13.4312 H         1 UNK         0.3450 
    100 H100      -57.9935  -31.7285   13.9275 H         1 UNK         0.3450 
    101 H101      -55.4242  -30.2147   13.8641 H         1 UNK         0.2987 
    102 H102      -56.0958  -30.9608   17.2238 H         1 UNK         0.0766 
    103 H103      -55.1517  -32.2491   15.2813 H         1 UNK         0.0798 
    104 H104      -53.9439  -31.9144   16.5071 H         1 UNK         0.0798 
    105 H105      -53.9519  -30.9838   15.0186 H         1 UNK         0.0798 
    106 H106      -54.1866  -28.8436   16.3298 H         1 UNK         0.3198 
    107 H107      -54.8260  -26.8831   19.1604 H         1 UNK         0.0843 
    108 H108      -52.1892  -28.3808   18.6881 H         1 UNK         0.0831 
    109 H109      -53.0744  -28.3204   20.2062 H         1 UNK         0.0831 
    110 H110      -52.3628  -26.8538   19.5514 H         1 UNK         0.0831 
    111 H111      -52.9098  -26.7036   17.0161 H         1 UNK         0.3133 
    112 H112      -55.0865  -25.9854   14.4094 H         1 UNK         0.0566 
    113 H113      -54.2397  -23.7032   14.1238 H         1 UNK         0.0814 
    114 H114      -53.5723  -23.6851   15.7566 H         1 UNK         0.0814 
    115 H115      -55.3141  -23.7076   15.5071 H         1 UNK         0.0814 
    116 H116      -52.3875  -25.3848   14.3864 H         1 UNK         0.3091 
    117 H117      -50.8923  -28.5797   14.6886 H         1 UNK         0.0702 
    118 H118      -49.9747  -28.0273   12.4116 H         1 UNK         0.0785 
    119 H119      -51.3713  -26.9873   12.1227 H         1 UNK         0.0785 
    120 H120      -51.5930  -28.7128   12.3502 H         1 UNK         0.0785 
    121 H121      -49.6842  -26.1636   13.9463 H         1 UNK         0.2998 
    122 H122      -49.1471  -24.8390   17.2401 H         1 UNK         0.0697 
    123 H123      -47.3761  -26.1191   15.0854 H         1 UNK         0.0825 
    124 H124      -47.4308  -26.5747   16.7818 H         1 UNK         0.0825 
    125 H125      -46.8412  -24.9854   16.3241 H         1 UNK         0.0825 
    126 H126      -48.7402  -24.1510   14.3871 H         1 UNK         0.3029 
    127 H127      -51.2251  -21.6400   14.4205 H         1 UNK         0.0897 
    128 H128      -48.1876  -21.2000   14.4179 H         1 UNK         0.0792 
    129 H129      -49.3307  -20.3999   15.4873 H         1 UNK         0.0792 
    130 H130      -49.3976  -20.0968   13.7600 H         1 UNK         0.0792 
    131 H131      -49.2831  -22.2915   12.4548 H         1 UNK         0.3086 
    132 H132      -50.9637  -25.0656   10.9923 H         1 UNK         0.0583 
    133 H133      -52.2587  -23.2134   10.0837 H         1 UNK         0.1020 
    134 H134      -50.9013  -22.1247   10.1706 H         1 UNK         0.1020 
    135 H135      -52.9765  -24.1293    7.8967 H         1 UNK         0.0694 
    136 H136      -51.9332  -24.8258    6.6825 H         1 UNK         0.0694 
    137 H137      -48.7428  -23.8769    9.9865 H         1 UNK         0.2989 
    138 H138      -46.1366  -24.4218   11.6379 H         1 UNK         0.1055 
    139 H139      -45.2265  -26.6193   10.8771 H         1 UNK         0.0806 
    140 H140      -46.8633  -27.2442   10.6830 H         1 UNK         0.0806 
    141 H141      -46.2623  -26.8176   12.2775 H         1 UNK         0.0806 
    142 H142      -46.6569  -25.4701    8.9646 H         1 UNK         0.3061 
    143 H143      -47.5609  -23.3628    7.2976 H         1 UNK         0.0734 
    144 H144      -44.9470  -21.7846    7.5233 H         1 UNK         0.0832 
    145 H145      -45.9549  -21.8712    6.0789 H         1 UNK         0.0832 
    146 H146      -46.5760  -21.1306    7.5440 H         1 UNK         0.0832 
    147 H147      -46.4433  -24.9901    6.3576 H         1 UNK         0.3156 
    148 H148      -43.1278  -25.7058    5.7433 H         1 UNK         0.0589 
    149 H149      -43.3401  -28.0120    6.6610 H         1 UNK         0.0808 
    150 H150      -43.0267  -26.8688    7.9540 H         1 UNK         0.0808 
    151 H151      -44.6523  -27.4943    7.7211 H         1 UNK         0.0808 
    152 H152      -45.4852  -27.3115    5.4117 H         1 UNK         0.3098 
    153 H153      -47.0865  -25.5010    2.9283 H         1 UNK         0.0720 
    154 H154      -45.3075  -26.4536    1.4405 H         1 UNK         0.0791 
    155 H155      -46.7731  -27.4181    1.3836 H         1 UNK         0.0791 
    156 H156      -45.3834  -27.9787    2.3135 H         1 UNK         0.0791 
    157 H157      -47.4037  -28.2217    3.7372 H         1 UNK         0.3028 
@<TRIPOS>BOND
     1    1    2 1    
     2    1   82 1    
     3    1   83 1    
     4    1   84 1    
     5    2    3 2    
     6    2    4 am   BACKBONE|DICT|INTERRES
     7    4    5 1    
     8    4   85 1    
     9    5    6 1    
    10    5   80 1    
    11    5   86 1    
    12    6    7 1    
    13    6   87 1    
    14    6   88 1    
    15    7    8 1    
    16    8    9 1    
    17    8   89 1    
    18    8   90 1    
    19    9   10 ar   
    20    9   14 ar   
    21   10   11 ar   
    22   10   91 1    
    23   11   12 ar   
    24   11   58 1    
    25   12   13 ar   
    26   12   92 1    
    27   13   14 ar   
    28   13   15 1    
    29   14   93 1    
    30   15   16 1    
    31   15   94 1    
    32   15   95 1    
    33   16   17 1    
    34   17   18 1    
    35   17   96 1    
    36   17   97 1    
    37   18   19 1    
    38   18   22 1    
    39   18   98 1    
    40   19   20 am   BACKBONE|DICT|INTERRES
    41   19   21 2    
    42   20   99 1    
    43   20  100 1    
    44   22   23 am   BACKBONE|DICT|INTERRES
    45   22  101 1    
    46   23   24 2    
    47   23   25 1    
    48   25   26 1    
    49   25   27 1    
    50   25  102 1    
    51   26  103 1    
    52   26  104 1    
    53   26  105 1    
    54   27   28 am   BACKBONE|DICT|INTERRES
    55   27  106 1    
    56   28   29 2    
    57   28   30 1    
    58   30   31 1    
    59   30   32 1    
    60   30  107 1    
    61   31  108 1    
    62   31  109 1    
    63   31  110 1    
    64   32   33 am   BACKBONE|DICT|INTERRES
    65   32  111 1    
    66   33   34 2    
    67   33   35 1    
    68   35   36 1    
    69   35   37 1    
    70   35  112 1    
    71   36  113 1    
    72   36  114 1    
    73   36  115 1    
    74   37   38 am   BACKBONE|DICT|INTERRES
    75   37  116 1    
    76   38   39 2    
    77   38   40 1    
    78   40   41 1    
    79   40   42 1    
    80   40  117 1    
    81   41  118 1    
    82   41  119 1    
    83   41  120 1    
    84   42   43 am   BACKBONE|DICT|INTERRES
    85   42  121 1    
    86   43   44 2    
    87   43   45 1    
    88   45   46 1    
    89   45   47 1    
    90   45  122 1    
    91   46  123 1    
    92   46  124 1    
    93   46  125 1    
    94   47   48 am   BACKBONE|DICT|INTERRES
    95   47  126 1    
    96   48   49 2    
    97   48   50 1    
    98   50   51 1    
    99   50   52 1    
   100   50  127 1    
   101   51  128 1    
   102   51  129 1    
   103   51  130 1    
   104   52   53 am   BACKBONE|DICT|INTERRES
   105   52  131 1    
   106   53   54 2    
   107   53   55 1    
   108   55   56 1    
   109   55   59 1    
   110   55  132 1    
   111   56   57 1    
   112   56  133 1    
   113   56  134 1    
   114   57   58 1    
   115   58  135 1    
   116   58  136 1    
   117   59   60 am   BACKBONE|DICT|INTERRES
   118   59  137 1    
   119   60   61 2    
   120   60   62 1    
   121   62   63 1    
   122   62   64 1    
   123   62  138 1    
   124   63  139 1    
   125   63  140 1    
   126   63  141 1    
   127   64   65 am   BACKBONE|DICT|INTERRES
   128   64  142 1    
   129   65   66 2    
   130   65   67 1    
   131   67   68 1    
   132   67   69 1    
   133   67  143 1    
   134   68  144 1    
   135   68  145 1    
   136   68  146 1    
   137   69   70 am   BACKBONE|DICT|INTERRES
   138   69  147 1    
   139   70   71 2    
   140   70   72 1    
   141   72   73 1    
   142   72   74 1    
   143   72  148 1    
   144   73  149 1    
   145   73  150 1    
   146   73  151 1    
   147   74   75 am   BACKBONE|DICT|INTERRES
   148   74  152 1    
   149   75   76 2    
   150   75   77 1    
   151   77   78 1    
   152   77   79 1    
   153   77  153 1    
   154   78  154 1    
   155   78  155 1    
   156   78  156 1    
   157   79   80 am   BACKBONE|DICT|INTERRES
   158   79  157 1    
   159   80   81 2    
@<TRIPOS>SUBSTRUCTURE
     1 UNK         1 GROUP             0       ****    0 ROOT    
