@<TRIPOS>MOLECULE
3R207
157   159    1
SMALL
USER_CHARGES


@<TRIPOS>ATOM
      1 CA        -51.1784  -27.6371    3.3797 C.3       0 UNK        -0.1975 
      2 C         -50.1796  -27.5694    4.5254 C.2       0 UNK         0.4852 
      3 O         -49.5246  -26.5424    4.7040 O.2       0 UNK        -0.5216 
      4 N         -50.0723  -28.6508    5.3095 N.am      1 UNK        -0.4461 
      5 CA        -49.1347  -28.7874    6.4304 C.3       1 UNK         0.0864 
      6 C6        -49.5028  -29.9930    7.3392 C.3       14 UNK        -0.0898 
      7 S7        -50.6457  -29.5381    8.6867 S.3       14 UNK        -0.2598 
      8 C8        -52.2607  -29.4967    7.8488 C.3       14 UNK         0.0286 
      9 C9        -52.9724  -28.1691    8.0750 C.ar      14 UNK        -0.0844 
     10 C10       -52.4825  -26.9959    7.4932 C.ar      14 UNK        -0.0881 
     11 C11       -53.1456  -25.7783    7.6660 C.ar      14 UNK        -0.0643 
     12 C12       -54.3069  -25.7364    8.4436 C.ar      14 UNK        -0.0930 
     13 C13       -54.8089  -26.9024    9.0323 C.ar      14 UNK        -0.0827 
     14 C14       -54.1381  -28.1145    8.8437 C.ar      14 UNK        -0.1249 
     15 C15       -56.0929  -26.8568    9.8465 C.3       14 UNK         0.0141 
     16 S16       -55.7483  -26.7908   11.6298 S.3       14 UNK        -0.2313 
     17 C17       -55.5191  -28.5520   12.0508 C.3       14 UNK        -0.0915 
     18 CA        -56.1507  -28.9011   13.4236 C.3       13 UNK         0.0968 
     19 C         -56.1824  -30.4395   13.6721 C.2       13 UNK         0.5732 
     20 N         -55.6437  -30.9663   14.7660 N.am      13 UNK        -0.7310 
     21 O         -56.7339  -31.1768   12.8580 O.2       13 UNK        -0.5035 
     22 N         -55.5320  -28.1237   14.5064 N.am      13 UNK        -0.4233 
     23 C         -56.1130  -27.8349   15.6757 C.2       13 UNK         0.4989 
     24 O         -57.2828  -28.1101   15.9492 O.2       13 UNK        -0.4996 
     25 CA        -55.2155  -27.1350   16.7149 C.3       12 UNK         0.0216 
     26 CB        -55.8166  -27.1340   18.1364 C.3       12 UNK        -0.1964 
     27 N         -53.8466  -27.6718   16.7258 N.am      12 UNK        -0.4276 
     28 C         -53.4766  -28.9381   16.9696 C.2       12 UNK         0.5020 
     29 O         -54.2667  -29.8453   17.2380 O.2       12 UNK        -0.5489 
     30 CA        -51.9693  -29.2357   16.8591 C.3       11 UNK         0.0294 
     31 CB        -51.6462  -30.7441   16.9225 C.3       11 UNK        -0.2019 
     32 N         -51.3531  -28.6211   15.6766 N.am      11 UNK        -0.4493 
     33 C         -51.6608  -28.8376   14.3866 C.2       11 UNK         0.4932 
     34 O         -52.5446  -29.6107   14.0178 O.2       11 UNK        -0.5029 
     35 CA        -50.8549  -28.0453   13.3376 C.3       10 UNK         0.0280 
     36 CB        -51.6454  -27.8433   12.0319 C.3       10 UNK        -0.1976 
     37 N         -50.4529  -26.7421   13.8739 N.am      10 UNK        -0.4242 
     38 C         -49.2289  -26.4310   14.3267 C.2       10 UNK         0.5072 
     39 O         -48.2526  -27.1699   14.2078 O.2       10 UNK        -0.5224 
     40 CA        -49.0563  -25.0992   15.0849 C.3       9 UNK         0.0343 
     41 CB        -48.1990  -24.0997   14.2916 C.3       9 UNK        -0.2003 
     42 N         -50.3248  -24.4681   15.4581 N.am      9 UNK        -0.4272 
     43 C         -51.1076  -24.8836   16.4652 C.2       9 UNK         0.4988 
     44 O         -50.8369  -25.8393   17.1924 O.2       9 UNK        -0.5108 
     45 CA        -52.4518  -24.1576   16.6543 C.3       8 UNK         0.0248 
     46 CB        -52.2770  -22.9301   17.5616 C.3       8 UNK        -0.2001 
     47 N         -53.0829  -23.7506   15.3945 N.am      8 UNK        -0.4140 
     48 C         -53.4002  -24.5731   14.3847 C.2       8 UNK         0.5028 
     49 O         -53.2203  -25.7923   14.4230 O.2       8 UNK        -0.5428 
     50 CA        -53.9698  -23.9415   13.1003 C.3       7 UNK         0.0264 
     51 CB        -54.1724  -22.4100   13.1748 C.3       7 UNK        -0.1988 
     52 N         -53.1595  -24.2952   11.9264 N.am      7 UNK        -0.4454 
     53 C         -51.8528  -24.0408   11.7614 C.2       7 UNK         0.5027 
     54 O         -51.1539  -23.4688   12.6045 O.2       7 UNK        -0.5083 
     55 CA        -51.2271  -24.4660   10.4228 C.3       6 UNK         0.0844 
     56 C56       -51.5277  -23.4060    9.3319 C.3       14 UNK        -0.0967 
     57 S57       -51.0398  -23.9443    7.6604 S.3       14 UNK        -0.2604 
     58 C58       -52.6264  -24.5222    6.9762 C.3       14 UNK         0.0134 
     59 N         -49.7967  -24.6450   10.6666 N.am      6 UNK        -0.4116 
     60 C         -49.0144  -25.6069   10.1692 C.2       5 UNK         0.5034 
     61 O         -49.3580  -26.4052    9.2987 O.2       5 UNK        -0.5045 
     62 CA        -47.5918  -25.6876   10.7458 C.3       5 UNK         0.0224 
     63 CB        -47.0947  -27.1421   10.8385 C.3       5 UNK        -0.1978 
     64 N         -46.6597  -24.8940    9.9442 N.am      5 UNK        -0.4737 
     65 C         -46.5803  -23.5550    9.9870 C.2       4 UNK         0.5027 
     66 O         -47.2629  -22.8704   10.7508 O.2       4 UNK        -0.5211 
     67 CA        -45.5744  -22.8586    9.0495 C.3       4 UNK         0.0297 
     68 CB        -44.9079  -21.6402    9.7161 C.3       4 UNK        -0.1993 
     69 N         -44.5347  -23.7821    8.5935 N.am      4 UNK        -0.4486 
     70 C         -44.1763  -23.9864    7.3205 C.2       3 UNK         0.4961 
     71 O         -44.6380  -23.3628    6.3638 O.2       3 UNK        -0.5105 
     72 CA        -43.1454  -25.1032    7.0545 C.3       3 UNK         0.0299 
     73 CB        -42.2659  -25.4508    8.2784 C.3       3 UNK        -0.1972 
     74 N         -43.7871  -26.3112    6.5184 N.am      3 UNK        -0.4305 
     75 C         -44.7880  -26.9975    7.0879 C.2       2 UNK         0.5006 
     76 O         -45.2789  -26.7210    8.1852 O.2       2 UNK        -0.5106 
     77 CA        -45.3348  -28.2008    6.3161 C.3       2 UNK         0.0296 
     78 CB        -44.5804  -29.4890    6.6908 C.3       2 UNK        -0.2002 
     79 N         -46.7477  -28.3247    6.6559 N.am      2 UNK        -0.4032 
     80 C         -47.6888  -28.9011    5.9043 C.2       1 UNK         0.5000 
     81 O         -47.4564  -29.5086    4.8544 O.2       1 UNK        -0.5238 
     82 H82       -50.6676  -27.4933    2.4279 H         1 UNK         0.0889 
     83 H83       -51.9258  -26.8515    3.4884 H         1 UNK         0.0889 
     84 H84       -51.6969  -28.5951    3.3455 H         1 UNK         0.0889 
     85 H85       -50.5982  -29.4802    5.0773 H         1 UNK         0.3028 
     86 H86       -49.1900  -27.8693    7.0205 H         1 UNK         0.0864 
     87 H87       -48.6169  -30.3951    7.8356 H         1 UNK         0.0720 
     88 H88       -49.9138  -30.8238    6.7630 H         1 UNK         0.0720 
     89 H89       -52.8639  -30.3262    8.2206 H         1 UNK         0.0814 
     90 H90       -52.1494  -29.6645    6.7783 H         1 UNK         0.0814 
     91 H91       -51.5752  -27.0233    6.9100 H         1 UNK         0.1469 
     92 H92       -54.8310  -24.7997    8.5754 H         1 UNK         0.1381 
     93 H93       -54.5284  -29.0176    9.2918 H         1 UNK         0.1206 
     94 H94       -56.7248  -27.7141    9.6107 H         1 UNK         0.0813 
     95 H95       -56.6753  -25.9749    9.5758 H         1 UNK         0.0813 
     96 H96       -54.4533  -28.7823   12.0467 H         1 UNK         0.0638 
     97 H97       -55.9667  -29.1609   11.2642 H         1 UNK         0.0638 
     98 H98       -57.2006  -28.6065   13.3730 H         1 UNK         0.0568 
     99 H99       -55.6866  -31.9634   14.8987 H         1 UNK         0.3450 
    100 H100      -55.1875  -30.3881   15.4619 H         1 UNK         0.3450 
    101 H101      -54.5676  -27.8552   14.3630 H         1 UNK         0.2987 
    102 H102      -55.1417  -26.0961   16.3930 H         1 UNK         0.0766 
    103 H103      -56.7825  -26.6277   18.1522 H         1 UNK         0.0798 
    104 H104      -55.1678  -26.6132   18.8406 H         1 UNK         0.0798 
    105 H105      -55.9746  -28.1460   18.5105 H         1 UNK         0.0798 
    106 H106      -53.1275  -27.0304   16.4163 H         1 UNK         0.3198 
    107 H107      -51.5052  -28.7633   17.7265 H         1 UNK         0.0843 
    108 H108      -52.1196  -31.2944   16.1085 H         1 UNK         0.0831 
    109 H109      -52.0013  -31.1801   17.8570 H         1 UNK         0.0831 
    110 H110      -50.5725  -30.9235   16.8696 H         1 UNK         0.0831 
    111 H111      -50.6356  -27.9369   15.8758 H         1 UNK         0.3133 
    112 H112      -49.9754  -28.6466   13.0999 H         1 UNK         0.0566 
    113 H113      -51.9752  -28.7955   11.6145 H         1 UNK         0.0814 
    114 H114      -52.5320  -27.2274   12.1829 H         1 UNK         0.0814 
    115 H115      -51.0294  -27.3743   11.2687 H         1 UNK         0.0814 
    116 H116      -51.2194  -26.1022   14.0560 H         1 UNK         0.3091 
    117 H117      -48.5146  -25.3331   16.0041 H         1 UNK         0.0702 
    118 H118      -47.2278  -24.5291   14.0418 H         1 UNK         0.0785 
    119 H119      -48.0082  -23.1973   14.8724 H         1 UNK         0.0785 
    120 H120      -48.6750  -23.7983   13.3599 H         1 UNK         0.0785 
    121 H121      -50.6510  -23.7205   14.8574 H         1 UNK         0.2998 
    122 H122      -53.1316  -24.8491   17.1545 H         1 UNK         0.0697 
    123 H123      -51.6317  -22.1776   17.1063 H         1 UNK         0.0825 
    124 H124      -51.8271  -23.2109   18.5151 H         1 UNK         0.0825 
    125 H125      -53.2354  -22.4610   17.7851 H         1 UNK         0.0825 
    126 H126      -53.2477  -22.7622   15.2690 H         1 UNK         0.3029 
    127 H127      -54.9528  -24.3896   12.9595 H         1 UNK         0.0897 
    128 H128      -53.2358  -21.8717   13.3251 H         1 UNK         0.0792 
    129 H129      -54.8507  -22.1378   13.9846 H         1 UNK         0.0792 
    130 H130      -54.6181  -22.0341   12.2538 H         1 UNK         0.0792 
    131 H131      -53.6441  -24.8221   11.2123 H         1 UNK         0.3086 
    132 H132      -51.6711  -25.4208   10.1348 H         1 UNK         0.0583 
    133 H133      -52.5893  -23.1516    9.3147 H         1 UNK         0.1020 
    134 H134      -51.0037  -22.4743    9.5548 H         1 UNK         0.1020 
    135 H135      -53.3587  -23.7151    7.0281 H         1 UNK         0.0694 
    136 H136      -52.4869  -24.7367    5.9156 H         1 UNK         0.0694 
    137 H137      -49.4199  -24.0095   11.3585 H         1 UNK         0.2989 
    138 H138      -47.6049  -25.2905   11.7611 H         1 UNK         0.1055 
    139 H139      -47.0715  -27.6325    9.8656 H         1 UNK         0.0806 
    140 H140      -47.7514  -27.7325   11.4789 H         1 UNK         0.0806 
    141 H141      -46.0929  -27.1938   11.2647 H         1 UNK         0.0806 
    142 H142      -46.1084  -25.4096    9.2610 H         1 UNK         0.3061 
    143 H143      -46.1589  -22.5035    8.1982 H         1 UNK         0.0734 
    144 H144      -44.3516  -21.9255   10.6097 H         1 UNK         0.0832 
    145 H145      -44.2168  -21.1446    9.0341 H         1 UNK         0.0832 
    146 H146      -45.6500  -20.8988   10.0151 H         1 UNK         0.0832 
    147 H147      -44.1257  -24.3759    9.3021 H         1 UNK         0.3156 
    148 H148      -42.4829  -24.7281    6.2729 H         1 UNK         0.0589 
    149 H149      -41.4707  -26.1422    7.9991 H         1 UNK         0.0808 
    150 H150      -41.7839  -24.5594    8.6825 H         1 UNK         0.0808 
    151 H151      -42.8322  -25.9179    9.0847 H         1 UNK         0.0808 
    152 H152      -43.4674  -26.6031    5.6049 H         1 UNK         0.3098 
    153 H153      -45.2359  -28.0100    5.2453 H         1 UNK         0.0720 
    154 H154      -44.6657  -29.7083    7.7560 H         1 UNK         0.0791 
    155 H155      -43.5183  -29.4026    6.4581 H         1 UNK         0.0791 
    156 H156      -44.9633  -30.3487    6.1406 H         1 UNK         0.0791 
    157 H157      -47.0079  -27.8233    7.4974 H         1 UNK         0.3028 
@<TRIPOS>BOND
     1    1    2 1    
     2    1   82 1    
     3    1   83 1    
     4    1   84 1    
     5    2    3 2    
     6    2    4 am   BACKBONE|DICT|INTERRES
     7    4    5 1    
     8    4   85 1    
     9    5    6 1    
    10    5   80 1    
    11    5   86 1    
    12    6    7 1    
    13    6   87 1    
    14    6   88 1    
    15    7    8 1    
    16    8    9 1    
    17    8   89 1    
    18    8   90 1    
    19    9   10 ar   
    20    9   14 ar   
    21   10   11 ar   
    22   10   91 1    
    23   11   12 ar   
    24   11   58 1    
    25   12   13 ar   
    26   12   92 1    
    27   13   14 ar   
    28   13   15 1    
    29   14   93 1    
    30   15   16 1    
    31   15   94 1    
    32   15   95 1    
    33   16   17 1    
    34   17   18 1    
    35   17   96 1    
    36   17   97 1    
    37   18   19 1    
    38   18   22 1    
    39   18   98 1    
    40   19   20 am   BACKBONE|DICT|INTERRES
    41   19   21 2    
    42   20   99 1    
    43   20  100 1    
    44   22   23 am   BACKBONE|DICT|INTERRES
    45   22  101 1    
    46   23   24 2    
    47   23   25 1    
    48   25   26 1    
    49   25   27 1    
    50   25  102 1    
    51   26  103 1    
    52   26  104 1    
    53   26  105 1    
    54   27   28 am   BACKBONE|DICT|INTERRES
    55   27  106 1    
    56   28   29 2    
    57   28   30 1    
    58   30   31 1    
    59   30   32 1    
    60   30  107 1    
    61   31  108 1    
    62   31  109 1    
    63   31  110 1    
    64   32   33 am   BACKBONE|DICT|INTERRES
    65   32  111 1    
    66   33   34 2    
    67   33   35 1    
    68   35   36 1    
    69   35   37 1    
    70   35  112 1    
    71   36  113 1    
    72   36  114 1    
    73   36  115 1    
    74   37   38 am   BACKBONE|DICT|INTERRES
    75   37  116 1    
    76   38   39 2    
    77   38   40 1    
    78   40   41 1    
    79   40   42 1    
    80   40  117 1    
    81   41  118 1    
    82   41  119 1    
    83   41  120 1    
    84   42   43 am   BACKBONE|DICT|INTERRES
    85   42  121 1    
    86   43   44 2    
    87   43   45 1    
    88   45   46 1    
    89   45   47 1    
    90   45  122 1    
    91   46  123 1    
    92   46  124 1    
    93   46  125 1    
    94   47   48 am   BACKBONE|DICT|INTERRES
    95   47  126 1    
    96   48   49 2    
    97   48   50 1    
    98   50   51 1    
    99   50   52 1    
   100   50  127 1    
   101   51  128 1    
   102   51  129 1    
   103   51  130 1    
   104   52   53 am   BACKBONE|DICT|INTERRES
   105   52  131 1    
   106   53   54 2    
   107   53   55 1    
   108   55   56 1    
   109   55   59 1    
   110   55  132 1    
   111   56   57 1    
   112   56  133 1    
   113   56  134 1    
   114   57   58 1    
   115   58  135 1    
   116   58  136 1    
   117   59   60 am   BACKBONE|DICT|INTERRES
   118   59  137 1    
   119   60   61 2    
   120   60   62 1    
   121   62   63 1    
   122   62   64 1    
   123   62  138 1    
   124   63  139 1    
   125   63  140 1    
   126   63  141 1    
   127   64   65 am   BACKBONE|DICT|INTERRES
   128   64  142 1    
   129   65   66 2    
   130   65   67 1    
   131   67   68 1    
   132   67   69 1    
   133   67  143 1    
   134   68  144 1    
   135   68  145 1    
   136   68  146 1    
   137   69   70 am   BACKBONE|DICT|INTERRES
   138   69  147 1    
   139   70   71 2    
   140   70   72 1    
   141   72   73 1    
   142   72   74 1    
   143   72  148 1    
   144   73  149 1    
   145   73  150 1    
   146   73  151 1    
   147   74   75 am   BACKBONE|DICT|INTERRES
   148   74  152 1    
   149   75   76 2    
   150   75   77 1    
   151   77   78 1    
   152   77   79 1    
   153   77  153 1    
   154   78  154 1    
   155   78  155 1    
   156   78  156 1    
   157   79   80 am   BACKBONE|DICT|INTERRES
   158   79  157 1    
   159   80   81 2    
@<TRIPOS>SUBSTRUCTURE
     1 UNK         1 GROUP             0       ****    0 ROOT    
