@<TRIPOS>MOLECULE
3R207
157   159    1
SMALL
USER_CHARGES


@<TRIPOS>ATOM
      1 CA        -48.1814  -23.2919    5.2803 C.3       0 UNK        -0.1975 
      2 C         -48.7817  -24.6855    5.1663 C.2       0 UNK         0.4852 
      3 O         -48.6227  -25.3275    4.1286 O.2       0 UNK        -0.5216 
      4 N         -49.4719  -25.1310    6.2244 N.am      1 UNK        -0.4461 
      5 CA        -50.1204  -26.4345    6.4003 C.3       1 UNK         0.0864 
      6 C6        -51.0552  -26.8307    5.2251 C.3       14 UNK        -0.0898 
      7 S7        -52.4115  -27.9251    5.7584 S.3       14 UNK        -0.2598 
      8 C8        -53.7881  -26.7421    5.9050 C.3       14 UNK         0.0286 
      9 C9        -53.5754  -25.7650    7.0525 C.ar      14 UNK        -0.0844 
     10 C10       -53.1588  -24.4530    6.8048 C.ar      14 UNK        -0.0881 
     11 C11       -52.9829  -23.5515    7.8597 C.ar      14 UNK        -0.0643 
     12 C12       -53.2257  -23.9730    9.1718 C.ar      14 UNK        -0.0930 
     13 C13       -53.6299  -25.2862    9.4305 C.ar      14 UNK        -0.0827 
     14 C14       -53.8072  -26.1750    8.3674 C.ar      14 UNK        -0.1249 
     15 C15       -53.8933  -25.7520   10.8523 C.3       14 UNK         0.0141 
     16 S16       -52.4602  -26.6457   11.5234 S.3       14 UNK        -0.2313 
     17 C17       -53.2126  -27.4206   12.9943 C.3       14 UNK        -0.0915 
     18 CA        -53.5896  -28.9103   12.7698 C.3       13 UNK         0.0968 
     19 C         -52.3870  -29.8753   13.0059 C.2       13 UNK         0.5732 
     20 N         -52.4494  -30.8203   13.9385 N.am      13 UNK        -0.7310 
     21 O         -51.3776  -29.7826   12.3141 O.2       13 UNK        -0.5035 
     22 N         -54.7945  -29.2601   13.5344 N.am      13 UNK        -0.4233 
     23 C         -55.6461  -30.2412   13.2043 C.2       13 UNK         0.4989 
     24 O         -55.5732  -30.8777   12.1515 O.2       13 UNK        -0.4996 
     25 CA        -56.7666  -30.5701   14.2169 C.3       12 UNK         0.0216 
     26 CB        -57.2550  -32.0304   14.1025 C.3       12 UNK        -0.1964 
     27 N         -56.4241  -30.2520   15.6113 N.am      12 UNK        -0.4276 
     28 C         -55.3784  -30.7180   16.3088 C.2       12 UNK         0.5020 
     29 O         -54.5501  -31.5198   15.8703 O.2       12 UNK        -0.5489 
     30 CA        -55.1967  -30.1484   17.7242 C.3       11 UNK         0.0294 
     31 CB        -55.4033  -31.2435   18.7832 C.3       11 UNK        -0.2019 
     32 N         -53.8704  -29.5491   17.8925 N.am      11 UNK        -0.4493 
     33 C         -53.3963  -28.5175   17.1808 C.2       11 UNK         0.4932 
     34 O         -54.0294  -27.9449   16.2892 O.2       11 UNK        -0.5029 
     35 CA        -51.9609  -28.0769   17.5061 C.3       10 UNK         0.0280 
     36 CB        -50.9657  -28.6981   16.5134 C.3       10 UNK        -0.1976 
     37 N         -51.8417  -26.6192   17.4715 N.am      10 UNK        -0.4242 
     38 C         -52.2906  -25.8032   18.4385 C.2       10 UNK         0.5072 
     39 O         -52.7785  -26.2069   19.4958 O.2       10 UNK        -0.5224 
     40 CA        -52.1738  -24.2815   18.2132 C.3       9 UNK         0.0343 
     41 CB        -50.9174  -23.7302   18.9066 C.3       9 UNK        -0.2003 
     42 N         -52.1424  -23.9068   16.7995 N.am      9 UNK        -0.4272 
     43 C         -53.1786  -24.0145   15.9575 C.2       9 UNK         0.4988 
     44 O         -54.3236  -24.2842   16.3217 O.2       9 UNK        -0.5108 
     45 CA        -52.9067  -23.7977   14.4555 C.3       8 UNK         0.0248 
     46 CB        -53.5583  -22.4935   13.9668 C.3       8 UNK        -0.2001 
     47 N         -51.4989  -23.8052   14.0347 N.am      8 UNK        -0.4140 
     48 C         -50.6008  -24.7849   14.2068 C.2       8 UNK         0.5028 
     49 O         -50.8005  -25.7723   14.9140 O.2       8 UNK        -0.5428 
     50 CA        -49.2531  -24.6248   13.4729 C.3       7 UNK         0.0264 
     51 CB        -48.3553  -25.8683   13.6184 C.3       7 UNK        -0.1988 
     52 N         -49.4122  -24.3344   12.0440 N.am      7 UNK        -0.4454 
     53 C         -49.7742  -23.1596   11.5117 C.2       7 UNK         0.5027 
     54 O         -50.0570  -22.1681   12.1874 O.2       7 UNK        -0.5083 
     55 CA        -49.7847  -23.0824    9.9741 C.3       6 UNK         0.0844 
     56 C56       -50.4663  -21.7987    9.4412 C.3       14 UNK        -0.0967 
     57 S57       -50.7576  -21.8943    7.6424 S.3       14 UNK        -0.2604 
     58 C58       -52.5646  -22.1159    7.5707 C.3       14 UNK         0.0134 
     59 N         -48.4028  -23.2021    9.5020 N.am      6 UNK        -0.4116 
     60 C         -47.8074  -24.3619    9.2116 C.2       5 UNK         0.5034 
     61 O         -48.3970  -25.4424    9.2228 O.2       5 UNK        -0.5045 
     62 CA        -46.3093  -24.3106    8.8987 C.3       5 UNK         0.0224 
     63 CB        -45.4916  -24.6333   10.1600 C.3       5 UNK        -0.1978 
     64 N         -46.0015  -25.2977    7.8670 N.am      5 UNK        -0.4737 
     65 C         -45.3382  -25.0410    6.7320 C.2       4 UNK         0.5027 
     66 O         -44.8675  -23.9352    6.4613 O.2       4 UNK        -0.5211 
     67 CA        -45.2019  -26.1885    5.7104 C.3       4 UNK         0.0297 
     68 CB        -43.9726  -26.0345    4.7889 C.3       4 UNK        -0.1993 
     69 N         -45.2578  -27.5226    6.3161 N.am      4 UNK        -0.4486 
     70 C         -44.3699  -28.0794    7.1557 C.2       3 UNK         0.4961 
     71 O         -43.3115  -27.5449    7.4902 O.2       3 UNK        -0.5105 
     72 CA        -44.7332  -29.4729    7.7170 C.3       3 UNK         0.0299 
     73 CB        -44.0200  -29.7820    9.0512 C.3       3 UNK        -0.1972 
     74 N         -46.1818  -29.6955    7.8369 N.am      3 UNK        -0.4305 
     75 C         -47.0445  -28.9664    8.5601 C.2       2 UNK         0.5006 
     76 O         -46.7170  -28.0271    9.2855 O.2       2 UNK        -0.5106 
     77 CA        -48.5317  -29.3262    8.4081 C.3       2 UNK         0.0296 
     78 CB        -49.1208  -29.7877    9.7505 C.3       2 UNK        -0.2002 
     79 N         -49.3253  -28.2065    7.8941 N.am      2 UNK        -0.4032 
     80 C         -49.1092  -27.5493    6.7444 C.2       1 UNK         0.5000 
     81 O         -48.1889  -27.8200    5.9671 O.2       1 UNK        -0.5238 
     82 H82       -48.7994  -22.5731    4.7431 H         1 UNK         0.0889 
     83 H83       -47.1817  -23.2726    4.8468 H         1 UNK         0.0889 
     84 H84       -48.1023  -22.9667    6.3172 H         1 UNK         0.0889 
     85 H85       -49.5456  -24.5302    7.0336 H         1 UNK         0.3028 
     86 H86       -50.7454  -26.2817    7.2821 H         1 UNK         0.0864 
     87 H87       -50.4991  -27.3215    4.4240 H         1 UNK         0.0720 
     88 H88       -51.4906  -25.9402    4.7701 H         1 UNK         0.0720 
     89 H89       -54.7125  -27.2974    6.0707 H         1 UNK         0.0814 
     90 H90       -53.9200  -26.2122    4.9603 H         1 UNK         0.0814 
     91 H91       -52.9768  -24.1292    5.7891 H         1 UNK         0.1469 
     92 H92       -53.1032  -23.2806    9.9924 H         1 UNK         0.1381 
     93 H93       -54.1226  -27.1908    8.5641 H         1 UNK         0.1206 
     94 H94       -54.1285  -24.9052   11.4987 H         1 UNK         0.0813 
     95 H95       -54.7683  -26.4041   10.8643 H         1 UNK         0.0813 
     96 H96       -54.0961  -26.8401   13.2641 H         1 UNK         0.0638 
     97 H97       -52.5362  -27.3152   13.8415 H         1 UNK         0.0638 
     98 H98       -53.8492  -29.0246   11.7155 H         1 UNK         0.0568 
     99 H99       -51.6611  -31.4351   14.0552 H         1 UNK         0.3450 
    100 H100      -53.2721  -30.9470   14.5202 H         1 UNK         0.3450 
    101 H101      -54.8826  -28.8120   14.4385 H         1 UNK         0.2987 
    102 H102      -57.6035  -29.9218   13.9534 H         1 UNK         0.0766 
    103 H103      -57.6454  -32.2385   13.1055 H         1 UNK         0.0798 
    104 H104      -58.0573  -32.2376   14.8106 H         1 UNK         0.0798 
    105 H105      -56.4497  -32.7413   14.2909 H         1 UNK         0.0798 
    106 H106      -57.0256  -29.5726   16.0583 H         1 UNK         0.3198 
    107 H107      -55.9368  -29.3634   17.8938 H         1 UNK         0.0843 
    108 H108      -54.6714  -32.0462   18.6821 H         1 UNK         0.0831 
    109 H109      -56.3929  -31.6931   18.6903 H         1 UNK         0.0831 
    110 H110      -55.3252  -30.8414   19.7935 H         1 UNK         0.0831 
    111 H111      -53.2662  -29.9822   18.5758 H         1 UNK         0.3133 
    112 H112      -51.6995  -28.4213   18.5090 H         1 UNK         0.0566 
    113 H113      -51.1738  -28.3929   15.4880 H         1 UNK         0.0814 
    114 H114      -51.0117  -29.7875   16.5424 H         1 UNK         0.0814 
    115 H115      -49.9406  -28.4082   16.7442 H         1 UNK         0.0814 
    116 H116      -51.4942  -26.2196   16.6012 H         1 UNK         0.3091 
    117 H117      -53.0492  -23.8139   18.6689 H         1 UNK         0.0702 
    118 H118      -50.8585  -22.6452   18.8185 H         1 UNK         0.0785 
    119 H119      -50.0048  -24.1532   18.4845 H         1 UNK         0.0785 
    120 H120      -50.9243  -23.9674   19.9715 H         1 UNK         0.0785 
    121 H121      -51.2391  -23.6874   16.4066 H         1 UNK         0.2998 
    122 H122      -53.3898  -24.6272   13.9383 H         1 UNK         0.0697 
    123 H123      -53.0906  -21.6177   14.4182 H         1 UNK         0.0825 
    124 H124      -54.6191  -22.4643   14.2203 H         1 UNK         0.0825 
    125 H125      -53.4847  -22.3936   12.8837 H         1 UNK         0.0825 
    126 H126      -51.1995  -23.0248   13.4565 H         1 UNK         0.3029 
    127 H127      -48.7360  -23.7839   13.9399 H         1 UNK         0.0897 
    128 H128      -48.8240  -26.7537   13.1859 H         1 UNK         0.0792 
    129 H129      -48.1535  -26.0865   14.6681 H         1 UNK         0.0792 
    130 H130      -47.3922  -25.7246   13.1282 H         1 UNK         0.0792 
    131 H131      -49.2200  -25.0985   11.4075 H         1 UNK         0.3086 
    132 H132      -50.3742  -23.9338    9.6260 H         1 UNK         0.0583 
    133 H133      -51.4146  -21.6187    9.9498 H         1 UNK         0.1020 
    134 H134      -49.8528  -20.9203    9.6497 H         1 UNK         0.1020 
    135 H135      -53.0553  -21.4287    8.2615 H         1 UNK         0.0694 
    136 H136      -52.9059  -21.8282    6.5752 H         1 UNK         0.0694 
    137 H137      -47.8575  -22.3520    9.5077 H         1 UNK         0.2989 
    138 H138      -46.0577  -23.3036    8.5584 H         1 UNK         0.1055 
    139 H139      -45.7222  -25.6284   10.5441 H         1 UNK         0.0806 
    140 H140      -45.6979  -23.9184   10.9576 H         1 UNK         0.0806 
    141 H141      -44.4213  -24.5950    9.9568 H         1 UNK         0.0806 
    142 H142      -46.3812  -26.2243    8.0356 H         1 UNK         0.3061 
    143 H143      -46.0859  -26.1225    5.0754 H         1 UNK         0.0734 
    144 H144      -43.0416  -25.9967    5.3550 H         1 UNK         0.0832 
    145 H145      -43.9022  -26.8578    4.0783 H         1 UNK         0.0832 
    146 H146      -44.0339  -25.1130    4.2086 H         1 UNK         0.0832 
    147 H147      -46.1303  -28.0159    6.1492 H         1 UNK         0.3156 
    148 H148      -44.3762  -30.1937    6.9801 H         1 UNK         0.0589 
    149 H149      -44.2845  -30.7715    9.4236 H         1 UNK         0.0808 
    150 H150      -42.9362  -29.7627    8.9300 H         1 UNK         0.0808 
    151 H151      -44.2724  -29.0541    9.8230 H         1 UNK         0.0808 
    152 H152      -46.5550  -30.4357    7.2576 H         1 UNK         0.3098 
    153 H153      -48.6284  -30.1467    7.6944 H         1 UNK         0.0720 
    154 H154      -49.0990  -28.9907   10.4957 H         1 UNK         0.0791 
    155 H155      -48.5582  -30.6288   10.1575 H         1 UNK         0.0791 
    156 H156      -50.1557  -30.1133    9.6424 H         1 UNK         0.0791 
    157 H157      -50.0744  -27.8891    8.4916 H         1 UNK         0.3028 
@<TRIPOS>BOND
     1    1    2 1    
     2    1   82 1    
     3    1   83 1    
     4    1   84 1    
     5    2    3 2    
     6    2    4 am   BACKBONE|DICT|INTERRES
     7    4    5 1    
     8    4   85 1    
     9    5    6 1    
    10    5   80 1    
    11    5   86 1    
    12    6    7 1    
    13    6   87 1    
    14    6   88 1    
    15    7    8 1    
    16    8    9 1    
    17    8   89 1    
    18    8   90 1    
    19    9   10 ar   
    20    9   14 ar   
    21   10   11 ar   
    22   10   91 1    
    23   11   12 ar   
    24   11   58 1    
    25   12   13 ar   
    26   12   92 1    
    27   13   14 ar   
    28   13   15 1    
    29   14   93 1    
    30   15   16 1    
    31   15   94 1    
    32   15   95 1    
    33   16   17 1    
    34   17   18 1    
    35   17   96 1    
    36   17   97 1    
    37   18   19 1    
    38   18   22 1    
    39   18   98 1    
    40   19   20 am   BACKBONE|DICT|INTERRES
    41   19   21 2    
    42   20   99 1    
    43   20  100 1    
    44   22   23 am   BACKBONE|DICT|INTERRES
    45   22  101 1    
    46   23   24 2    
    47   23   25 1    
    48   25   26 1    
    49   25   27 1    
    50   25  102 1    
    51   26  103 1    
    52   26  104 1    
    53   26  105 1    
    54   27   28 am   BACKBONE|DICT|INTERRES
    55   27  106 1    
    56   28   29 2    
    57   28   30 1    
    58   30   31 1    
    59   30   32 1    
    60   30  107 1    
    61   31  108 1    
    62   31  109 1    
    63   31  110 1    
    64   32   33 am   BACKBONE|DICT|INTERRES
    65   32  111 1    
    66   33   34 2    
    67   33   35 1    
    68   35   36 1    
    69   35   37 1    
    70   35  112 1    
    71   36  113 1    
    72   36  114 1    
    73   36  115 1    
    74   37   38 am   BACKBONE|DICT|INTERRES
    75   37  116 1    
    76   38   39 2    
    77   38   40 1    
    78   40   41 1    
    79   40   42 1    
    80   40  117 1    
    81   41  118 1    
    82   41  119 1    
    83   41  120 1    
    84   42   43 am   BACKBONE|DICT|INTERRES
    85   42  121 1    
    86   43   44 2    
    87   43   45 1    
    88   45   46 1    
    89   45   47 1    
    90   45  122 1    
    91   46  123 1    
    92   46  124 1    
    93   46  125 1    
    94   47   48 am   BACKBONE|DICT|INTERRES
    95   47  126 1    
    96   48   49 2    
    97   48   50 1    
    98   50   51 1    
    99   50   52 1    
   100   50  127 1    
   101   51  128 1    
   102   51  129 1    
   103   51  130 1    
   104   52   53 am   BACKBONE|DICT|INTERRES
   105   52  131 1    
   106   53   54 2    
   107   53   55 1    
   108   55   56 1    
   109   55   59 1    
   110   55  132 1    
   111   56   57 1    
   112   56  133 1    
   113   56  134 1    
   114   57   58 1    
   115   58  135 1    
   116   58  136 1    
   117   59   60 am   BACKBONE|DICT|INTERRES
   118   59  137 1    
   119   60   61 2    
   120   60   62 1    
   121   62   63 1    
   122   62   64 1    
   123   62  138 1    
   124   63  139 1    
   125   63  140 1    
   126   63  141 1    
   127   64   65 am   BACKBONE|DICT|INTERRES
   128   64  142 1    
   129   65   66 2    
   130   65   67 1    
   131   67   68 1    
   132   67   69 1    
   133   67  143 1    
   134   68  144 1    
   135   68  145 1    
   136   68  146 1    
   137   69   70 am   BACKBONE|DICT|INTERRES
   138   69  147 1    
   139   70   71 2    
   140   70   72 1    
   141   72   73 1    
   142   72   74 1    
   143   72  148 1    
   144   73  149 1    
   145   73  150 1    
   146   73  151 1    
   147   74   75 am   BACKBONE|DICT|INTERRES
   148   74  152 1    
   149   75   76 2    
   150   75   77 1    
   151   77   78 1    
   152   77   79 1    
   153   77  153 1    
   154   78  154 1    
   155   78  155 1    
   156   78  156 1    
   157   79   80 am   BACKBONE|DICT|INTERRES
   158   79  157 1    
   159   80   81 2    
@<TRIPOS>SUBSTRUCTURE
     1 UNK         1 GROUP             0       ****    0 ROOT    
