@<TRIPOS>MOLECULE
3R207
157   159    1
SMALL
USER_CHARGES


@<TRIPOS>ATOM
      1 CA        -50.5190  -32.6405    1.2890 C.3       0 UNK        -0.1975 
      2 C         -50.5659  -31.1948    1.7621 C.2       0 UNK         0.4852 
      3 O         -50.7954  -30.2942    0.9539 O.2       0 UNK        -0.5216 
      4 N         -50.3472  -30.9686    3.0613 N.am      1 UNK        -0.4461 
      5 CA        -50.2978  -29.6578    3.7073 C.3       1 UNK         0.0864 
      6 C6        -51.7010  -29.0065    3.8728 C.3       14 UNK        -0.0898 
      7 S7        -51.6249  -27.1904    3.7273 S.3       14 UNK        -0.2598 
      8 C8        -53.1318  -26.6917    4.6156 C.3       14 UNK         0.0286 
      9 C9        -52.8964  -26.6053    6.1156 C.ar      14 UNK        -0.0844 
     10 C10       -52.2340  -25.4958    6.6504 C.ar      14 UNK        -0.0881 
     11 C11       -52.0256  -25.3902    8.0277 C.ar      14 UNK        -0.0643 
     12 C12       -52.4803  -26.4088    8.8701 C.ar      14 UNK        -0.0930 
     13 C13       -53.1624  -27.5127    8.3512 C.ar      14 UNK        -0.0827 
     14 C14       -53.3613  -27.6106    6.9703 C.ar      14 UNK        -0.1249 
     15 C15       -53.7028  -28.5789    9.2923 C.3       14 UNK         0.0141 
     16 S16       -55.1419  -27.9433   10.2052 S.3       14 UNK        -0.2313 
     17 C17       -55.6824  -29.4001   11.1559 C.3       14 UNK        -0.0915 
     18 CA        -55.1351  -29.3846   12.6152 C.3       13 UNK         0.0968 
     19 C         -56.0068  -30.1995   13.6232 C.2       13 UNK         0.5732 
     20 N         -55.4430  -30.7764   14.6794 N.am      13 UNK        -0.7310 
     21 O         -57.2240  -30.2815   13.4750 O.2       13 UNK        -0.5035 
     22 N         -53.6947  -29.6802   12.6896 N.am      13 UNK        -0.4233 
     23 C         -53.1184  -30.8620   12.4204 C.2       13 UNK         0.4989 
     24 O         -53.7105  -31.8226   11.9273 O.2       13 UNK        -0.4996 
     25 CA        -51.6317  -31.0271   12.7924 C.3       12 UNK         0.0216 
     26 CB        -50.7506  -30.8261   11.5487 C.3       12 UNK        -0.1964 
     27 N         -51.1714  -30.1386   13.8669 N.am      12 UNK        -0.4276 
     28 C         -51.6796  -30.0760   15.1070 C.2       12 UNK         0.5020 
     29 O         -52.5898  -30.8010   15.5127 O.2       12 UNK        -0.5489 
     30 CA        -51.1218  -28.9840   16.0398 C.3       11 UNK         0.0294 
     31 CB        -49.6987  -28.5066   15.6774 C.3       11 UNK        -0.2019 
     32 N         -52.0237  -27.8318   16.1588 N.am      11 UNK        -0.4493 
     33 C         -52.6152  -27.1280   15.1813 C.2       11 UNK         0.4932 
     34 O         -52.5173  -27.3910   13.9829 O.2       11 UNK        -0.5029 
     35 CA        -53.4726  -25.9202   15.5983 C.3       10 UNK         0.0280 
     36 CB        -54.9026  -26.3595   15.9687 C.3       10 UNK        -0.1976 
     37 N         -52.8716  -25.0711   16.6376 N.am      10 UNK        -0.4242 
     38 C         -52.6276  -25.3418   17.9271 C.2       10 UNK         0.5072 
     39 O         -52.8857  -26.4219   18.4628 O.2       10 UNK        -0.5224 
     40 CA        -51.9207  -24.2301   18.7291 C.3       9 UNK         0.0343 
     41 CB        -51.9344  -24.4978   20.2458 C.3       9 UNK        -0.2003 
     42 N         -50.5327  -24.0580   18.2905 N.am      9 UNK        -0.4272 
     43 C         -50.1522  -23.4765   17.1454 C.2       9 UNK         0.4988 
     44 O         -50.9461  -22.9473   16.3617 O.2       9 UNK        -0.5108 
     45 CA        -48.6476  -23.5155   16.8286 C.3       8 UNK         0.0248 
     46 CB        -48.1308  -24.9653   16.7557 C.3       8 UNK        -0.2001 
     47 N         -48.3973  -22.8776   15.5381 N.am      8 UNK        -0.4140 
     48 C         -47.8514  -21.6684   15.3521 C.2       8 UNK         0.5028 
     49 O         -47.4249  -20.9635   16.2684 O.2       8 UNK        -0.5428 
     50 CA        -47.7477  -21.1482   13.9038 C.3       7 UNK         0.0264 
     51 CB        -46.2835  -21.1418   13.4335 C.3       7 UNK        -0.1988 
     52 N         -48.5534  -21.9335   12.9633 N.am      7 UNK        -0.4454 
     53 C         -49.8706  -21.7516   12.7712 C.2       7 UNK         0.5027 
     54 O         -50.4989  -20.8154   13.2671 O.2       7 UNK        -0.5083 
     55 CA        -50.6349  -22.7826   11.9099 C.3       6 UNK         0.0844 
     56 C56       -51.0951  -22.1718   10.5628 C.3       14 UNK        -0.0967 
     57 S57       -52.3361  -23.2260    9.7371 S.3       14 UNK        -0.2604 
     58 C58       -51.2878  -24.1941    8.6086 C.3       14 UNK         0.0134 
     59 N         -49.8832  -24.0227   11.7066 N.am      6 UNK        -0.4116 
     60 C         -49.6347  -24.9467   12.6415 C.2       5 UNK         0.5034 
     61 O         -50.0074  -24.8587   13.8096 O.2       5 UNK        -0.5045 
     62 CA        -48.7722  -26.1426   12.2094 C.3       5 UNK         0.0224 
     63 CB        -49.6622  -27.3275   11.8094 C.3       5 UNK        -0.1978 
     64 N         -47.8505  -25.8338   11.1083 N.am      5 UNK        -0.4737 
     65 C         -46.8189  -24.9809   11.2033 C.2       4 UNK         0.5027 
     66 O         -46.5839  -24.3257   12.2180 O.2       4 UNK        -0.5211 
     67 CA        -45.8996  -24.8107    9.9794 C.3       4 UNK         0.0297 
     68 CB        -44.6330  -25.6651   10.1453 C.3       4 UNK        -0.1993 
     69 N         -46.5372  -25.1392    8.7022 N.am      4 UNK        -0.4486 
     70 C         -47.5005  -24.4111    8.1224 C.2       3 UNK         0.4961 
     71 O         -47.9444  -23.3644    8.5958 O.2       3 UNK        -0.5105 
     72 CA        -48.0934  -24.9552    6.8065 C.3       3 UNK         0.0299 
     73 CB        -47.3117  -24.4048    5.6034 C.3       3 UNK        -0.1972 
     74 N         -48.1871  -26.4195    6.6955 N.am      3 UNK        -0.4305 
     75 C         -48.7301  -27.2484    7.6009 C.2       2 UNK         0.5006 
     76 O         -49.0952  -26.8894    8.7179 O.2       2 UNK        -0.5106 
     77 CA        -48.9063  -28.7129    7.1795 C.3       2 UNK         0.0296 
     78 CB        -49.6862  -29.5439    8.2218 C.3       2 UNK        -0.2002 
     79 N         -49.5725  -28.7684    5.8787 N.am      2 UNK        -0.4032 
     80 C         -49.5208  -29.8018    5.0311 C.2       1 UNK         0.5000 
     81 O         -48.8921  -30.8410    5.2592 O.2       1 UNK        -0.5238 
     82 H82       -51.4738  -32.9209    0.8450 H         1 UNK         0.0889 
     83 H83       -50.3099  -33.3302    2.1066 H         1 UNK         0.0889 
     84 H84       -49.7425  -32.7634    0.5345 H         1 UNK         0.0889 
     85 H85       -50.0885  -31.7285    3.6799 H         1 UNK         0.3028 
     86 H86       -49.6802  -29.0231    3.0675 H         1 UNK         0.0864 
     87 H87       -52.1721  -29.2993    4.8131 H         1 UNK         0.0720 
     88 H88       -52.3793  -29.3480    3.0897 H         1 UNK         0.0720 
     89 H89       -53.9453  -27.3814    4.3846 H         1 UNK         0.0814 
     90 H90       -53.4500  -25.7160    4.2454 H         1 UNK         0.0814 
     91 H91       -51.8793  -24.7161    5.9901 H         1 UNK         0.1469 
     92 H92       -52.3259  -26.3276    9.9371 H         1 UNK         0.1381 
     93 H93       -53.8906  -28.4610    6.5627 H         1 UNK         0.1206 
     94 H94       -52.9239  -28.8743    9.9957 H         1 UNK         0.0813 
     95 H95       -53.9856  -29.4761    8.7398 H         1 UNK         0.0813 
     96 H96       -56.7727  -29.3657   11.1471 H         1 UNK         0.0638 
     97 H97       -55.4140  -30.3166   10.6301 H         1 UNK         0.0638 
     98 H98       -55.2285  -28.3619   12.9817 H         1 UNK         0.0568 
     99 H99       -54.4424  -30.7228   14.8434 H         1 UNK         0.3450 
    100 H100      -56.0253  -31.2857   15.3242 H         1 UNK         0.3450 
    101 H101      -53.1293  -28.9429   13.1034 H         1 UNK         0.2987 
    102 H102      -51.4989  -32.0519   13.1450 H         1 UNK         0.0766 
    103 H103      -50.8738  -29.8291   11.1262 H         1 UNK         0.0798 
    104 H104      -51.0136  -31.5400   10.7668 H         1 UNK         0.0798 
    105 H105      -49.6943  -30.9721   11.7751 H         1 UNK         0.0798 
    106 H106      -50.4477  -29.4786   13.6274 H         1 UNK         0.3198 
    107 H107      -51.0690  -29.4395   17.0300 H         1 UNK         0.0843 
    108 H108      -49.2681  -27.9360   16.5000 H         1 UNK         0.0831 
    109 H109      -49.6859  -27.8619   14.8002 H         1 UNK         0.0831 
    110 H110      -49.0273  -29.3466   15.4933 H         1 UNK         0.0831 
    111 H111      -52.2414  -27.5361   17.1084 H         1 UNK         0.3133 
    112 H112      -53.5481  -25.2800   14.7177 H         1 UNK         0.0566 
    113 H113      -55.3692  -26.8972   15.1424 H         1 UNK         0.0814 
    114 H114      -54.9172  -27.0239   16.8331 H         1 UNK         0.0814 
    115 H115      -55.5350  -25.5010   16.1944 H         1 UNK         0.0814 
    116 H116      -52.4917  -24.1903   16.2995 H         1 UNK         0.3091 
    117 H117      -52.4648  -23.2996   18.5521 H         1 UNK         0.0702 
    118 H118      -51.4942  -23.6680   20.7990 H         1 UNK         0.0785 
    119 H119      -51.3833  -25.4032   20.5037 H         1 UNK         0.0785 
    120 H120      -52.9551  -24.6228   20.6101 H         1 UNK         0.0785 
    121 H121      -49.8265  -24.4828   18.8741 H         1 UNK         0.2998 
    122 H122      -48.1183  -22.9903   17.6261 H         1 UNK         0.0697 
    123 H123      -47.0822  -24.9957   16.4590 H         1 UNK         0.0825 
    124 H124      -48.2025  -25.4680   17.7205 H         1 UNK         0.0825 
    125 H125      -48.6955  -25.5581   16.0354 H         1 UNK         0.0825 
    126 H126      -48.8131  -23.3506   14.7445 H         1 UNK         0.3029 
    127 H127      -48.1038  -20.1155   13.9028 H         1 UNK         0.0897 
    128 H128      -46.1949  -20.7820   12.4083 H         1 UNK         0.0792 
    129 H129      -45.6776  -20.4861   14.0602 H         1 UNK         0.0792 
    130 H130      -45.8378  -22.1356   13.4819 H         1 UNK         0.0792 
    131 H131      -48.0916  -22.7265   12.5323 H         1 UNK         0.3086 
    132 H132      -51.5294  -23.0388   12.4827 H         1 UNK         0.0583 
    133 H133      -51.5619  -21.1976   10.7227 H         1 UNK         0.1020 
    134 H134      -50.2467  -21.9938    9.8985 H         1 UNK         0.1020 
    135 H135      -50.9249  -23.5337    7.8200 H         1 UNK         0.0694 
    136 H136      -50.4104  -24.5629    9.1363 H         1 UNK         0.0694 
    137 H137      -49.5015  -24.1725   10.7840 H         1 UNK         0.2989 
    138 H138      -48.1731  -26.4375   13.0738 H         1 UNK         0.1055 
    139 H139      -50.2941  -27.0884   10.9550 H         1 UNK         0.0806 
    140 H140      -50.3309  -27.6071   12.6199 H         1 UNK         0.0806 
    141 H141      -49.0649  -28.2023   11.5536 H         1 UNK         0.0806 
    142 H142      -48.0450  -26.2858   10.2177 H         1 UNK         0.3061 
    143 H143      -45.5990  -23.7611    9.9451 H         1 UNK         0.0734 
    144 H144      -43.9272  -25.4928    9.3325 H         1 UNK         0.0832 
    145 H145      -44.1177  -25.4211   11.0756 H         1 UNK         0.0832 
    146 H146      -44.8646  -26.7307   10.1719 H         1 UNK         0.0832 
    147 H147      -46.2471  -25.9937    8.2494 H         1 UNK         0.3156 
    148 H148      -49.1132  -24.5763    6.7357 H         1 UNK         0.0589 
    149 H149      -46.2920  -24.7907    5.5734 H         1 UNK         0.0808 
    150 H150      -47.7973  -24.6614    4.6615 H         1 UNK         0.0808 
    151 H151      -47.2469  -23.3163    5.6438 H         1 UNK         0.0808 
    152 H152      -47.8859  -26.8158    5.8168 H         1 UNK         0.3098 
    153 H153      -47.9031  -29.1333    7.0833 H         1 UNK         0.0720 
    154 H154      -50.6966  -29.1594    8.3630 H         1 UNK         0.0791 
    155 H155      -49.1877  -29.5195    9.1914 H         1 UNK         0.0791 
    156 H156      -49.7635  -30.5904    7.9281 H         1 UNK         0.0791 
    157 H157      -50.1281  -27.9593    5.6264 H         1 UNK         0.3028 
@<TRIPOS>BOND
     1    1    2 1    
     2    1   82 1    
     3    1   83 1    
     4    1   84 1    
     5    2    3 2    
     6    2    4 am   BACKBONE|DICT|INTERRES
     7    4    5 1    
     8    4   85 1    
     9    5    6 1    
    10    5   80 1    
    11    5   86 1    
    12    6    7 1    
    13    6   87 1    
    14    6   88 1    
    15    7    8 1    
    16    8    9 1    
    17    8   89 1    
    18    8   90 1    
    19    9   10 ar   
    20    9   14 ar   
    21   10   11 ar   
    22   10   91 1    
    23   11   12 ar   
    24   11   58 1    
    25   12   13 ar   
    26   12   92 1    
    27   13   14 ar   
    28   13   15 1    
    29   14   93 1    
    30   15   16 1    
    31   15   94 1    
    32   15   95 1    
    33   16   17 1    
    34   17   18 1    
    35   17   96 1    
    36   17   97 1    
    37   18   19 1    
    38   18   22 1    
    39   18   98 1    
    40   19   20 am   BACKBONE|DICT|INTERRES
    41   19   21 2    
    42   20   99 1    
    43   20  100 1    
    44   22   23 am   BACKBONE|DICT|INTERRES
    45   22  101 1    
    46   23   24 2    
    47   23   25 1    
    48   25   26 1    
    49   25   27 1    
    50   25  102 1    
    51   26  103 1    
    52   26  104 1    
    53   26  105 1    
    54   27   28 am   BACKBONE|DICT|INTERRES
    55   27  106 1    
    56   28   29 2    
    57   28   30 1    
    58   30   31 1    
    59   30   32 1    
    60   30  107 1    
    61   31  108 1    
    62   31  109 1    
    63   31  110 1    
    64   32   33 am   BACKBONE|DICT|INTERRES
    65   32  111 1    
    66   33   34 2    
    67   33   35 1    
    68   35   36 1    
    69   35   37 1    
    70   35  112 1    
    71   36  113 1    
    72   36  114 1    
    73   36  115 1    
    74   37   38 am   BACKBONE|DICT|INTERRES
    75   37  116 1    
    76   38   39 2    
    77   38   40 1    
    78   40   41 1    
    79   40   42 1    
    80   40  117 1    
    81   41  118 1    
    82   41  119 1    
    83   41  120 1    
    84   42   43 am   BACKBONE|DICT|INTERRES
    85   42  121 1    
    86   43   44 2    
    87   43   45 1    
    88   45   46 1    
    89   45   47 1    
    90   45  122 1    
    91   46  123 1    
    92   46  124 1    
    93   46  125 1    
    94   47   48 am   BACKBONE|DICT|INTERRES
    95   47  126 1    
    96   48   49 2    
    97   48   50 1    
    98   50   51 1    
    99   50   52 1    
   100   50  127 1    
   101   51  128 1    
   102   51  129 1    
   103   51  130 1    
   104   52   53 am   BACKBONE|DICT|INTERRES
   105   52  131 1    
   106   53   54 2    
   107   53   55 1    
   108   55   56 1    
   109   55   59 1    
   110   55  132 1    
   111   56   57 1    
   112   56  133 1    
   113   56  134 1    
   114   57   58 1    
   115   58  135 1    
   116   58  136 1    
   117   59   60 am   BACKBONE|DICT|INTERRES
   118   59  137 1    
   119   60   61 2    
   120   60   62 1    
   121   62   63 1    
   122   62   64 1    
   123   62  138 1    
   124   63  139 1    
   125   63  140 1    
   126   63  141 1    
   127   64   65 am   BACKBONE|DICT|INTERRES
   128   64  142 1    
   129   65   66 2    
   130   65   67 1    
   131   67   68 1    
   132   67   69 1    
   133   67  143 1    
   134   68  144 1    
   135   68  145 1    
   136   68  146 1    
   137   69   70 am   BACKBONE|DICT|INTERRES
   138   69  147 1    
   139   70   71 2    
   140   70   72 1    
   141   72   73 1    
   142   72   74 1    
   143   72  148 1    
   144   73  149 1    
   145   73  150 1    
   146   73  151 1    
   147   74   75 am   BACKBONE|DICT|INTERRES
   148   74  152 1    
   149   75   76 2    
   150   75   77 1    
   151   77   78 1    
   152   77   79 1    
   153   77  153 1    
   154   78  154 1    
   155   78  155 1    
   156   78  156 1    
   157   79   80 am   BACKBONE|DICT|INTERRES
   158   79  157 1    
   159   80   81 2    
@<TRIPOS>SUBSTRUCTURE
     1 UNK         1 GROUP             0       ****    0 ROOT    
