@<TRIPOS>MOLECULE
3R207
157   159    1
SMALL
USER_CHARGES


@<TRIPOS>ATOM
      1 CA        -51.0023  -23.7362    3.0592 C.3       0 UNK        -0.1975 
      2 C         -50.8892  -24.7026    4.2293 C.2       0 UNK         0.4852 
      3 O         -50.3673  -24.3276    5.2791 O.2       0 UNK        -0.5216 
      4 N         -51.3805  -25.9366    4.0531 N.am      1 UNK        -0.4461 
      5 CA        -51.3323  -27.0217    5.0409 C.3       1 UNK         0.0864 
      6 C6        -52.2347  -28.2076    4.6176 C.3       14 UNK        -0.0898 
      7 S7        -53.9983  -27.7574    4.7546 S.3       14 UNK        -0.2598 
      8 C8        -54.5505  -28.7409    6.1916 C.3       14 UNK         0.0286 
      9 C9        -53.6375  -28.6004    7.4049 C.ar      14 UNK        -0.0844 
     10 C10       -53.4469  -27.3558    8.0145 C.ar      14 UNK        -0.0881 
     11 C11       -52.5790  -27.2269    9.1026 C.ar      14 UNK        -0.0643 
     12 C12       -51.9323  -28.3586    9.6069 C.ar      14 UNK        -0.0930 
     13 C13       -52.1295  -29.6113    9.0195 C.ar      14 UNK        -0.0827 
     14 C14       -52.9751  -29.7230    7.9128 C.ar      14 UNK        -0.1249 
     15 C15       -51.4123  -30.8401    9.5646 C.3       14 UNK         0.0141 
     16 S16       -52.5448  -32.0068   10.3835 S.3       14 UNK        -0.2313 
     17 C17       -53.0253  -31.0667   11.8693 C.3       14 UNK        -0.0915 
     18 CA        -54.4074  -31.5040   12.4208 C.3       13 UNK         0.0968 
     19 C         -54.2974  -32.7534   13.3388 C.2       13 UNK         0.5732 
     20 N         -54.3568  -33.9501   12.7710 N.am      13 UNK        -0.7310 
     21 O         -54.1283  -32.6475   14.5527 O.2       13 UNK        -0.5035 
     22 N         -55.0808  -30.3779   13.0784 N.am      13 UNK        -0.4233 
     23 C         -56.3799  -30.3517   13.4101 C.2       13 UNK         0.4989 
     24 O         -57.1657  -31.2678   13.1632 O.2       13 UNK        -0.4996 
     25 CA        -56.9122  -29.0970   14.1324 C.3       12 UNK         0.0216 
     26 CB        -57.1280  -29.3897   15.6266 C.3       12 UNK        -0.1964 
     27 N         -56.0401  -27.9282   13.9972 N.am      12 UNK        -0.4276 
     28 C         -55.8262  -27.2505   12.8609 C.2       12 UNK         0.5020 
     29 O         -56.4464  -27.4573   11.8177 O.2       12 UNK        -0.5489 
     30 CA        -54.7197  -26.1787   12.8788 C.3       11 UNK         0.0294 
     31 CB        -55.3208  -24.7661   12.8045 C.3       11 UNK        -0.2019 
     32 N         -53.8189  -26.2552   14.0354 N.am      11 UNK        -0.4493 
     33 C         -52.9464  -27.2423   14.2835 C.2       11 UNK         0.4932 
     34 O         -52.8427  -28.2438   13.5752 O.2       11 UNK        -0.5029 
     35 CA        -52.0680  -27.0813   15.5389 C.3       10 UNK         0.0280 
     36 CB        -50.9450  -28.1312   15.6201 C.3       10 UNK        -0.1976 
     37 N         -51.4796  -25.7411   15.6006 N.am      10 UNK        -0.4242 
     38 C         -52.0606  -24.6661   16.1508 C.2       10 UNK         0.5072 
     39 O         -53.1739  -24.7061   16.6776 O.2       10 UNK        -0.5224 
     40 CA        -51.3282  -23.3150   16.0375 C.3       9 UNK         0.0343 
     41 CB        -51.6197  -22.3741   17.2263 C.3       9 UNK        -0.2003 
     42 N         -49.8875  -23.4315   15.7856 N.am      9 UNK        -0.4272 
     43 C         -48.9373  -23.9012   16.6104 C.2       9 UNK         0.4988 
     44 O         -49.1647  -24.3072   17.7506 O.2       9 UNK        -0.5108 
     45 CA        -47.4847  -23.9437   16.0869 C.3       8 UNK         0.0248 
     46 CB        -46.9206  -25.3735   16.1569 C.3       8 UNK        -0.2001 
     47 N         -47.3344  -23.4386   14.7181 N.am      8 UNK        -0.4140 
     48 C         -47.3187  -22.1438   14.3711 C.2       8 UNK         0.5028 
     49 O         -47.3349  -21.2179   15.1825 O.2       8 UNK        -0.5428 
     50 CA        -47.3389  -21.8255   12.8647 C.3       7 UNK         0.0264 
     51 CB        -45.9073  -21.7462   12.3116 C.3       7 UNK        -0.1988 
     52 N         -48.1189  -22.7873   12.0764 N.am      7 UNK        -0.4454 
     53 C         -49.4389  -22.9965   12.2042 C.2       7 UNK         0.5027 
     54 O         -50.1551  -22.3555   12.9731 O.2       7 UNK        -0.5083 
     55 CA        -50.0535  -24.1594   11.3968 C.3       6 UNK         0.0844 
     56 C56       -50.4183  -23.7112    9.9577 C.3       14 UNK        -0.0967 
     57 S57       -50.9440  -25.0492    8.8302 S.3       14 UNK        -0.2604 
     58 C58       -52.3064  -25.8647    9.7173 C.3       14 UNK         0.0134 
     59 N         -49.2075  -25.3573   11.4460 N.am      6 UNK        -0.4116 
     60 C         -48.9343  -26.0393   12.5678 C.2       5 UNK         0.5034 
     61 O         -49.4043  -25.7588   13.6698 O.2       5 UNK        -0.5045 
     62 CA        -47.9233  -27.1883   12.4606 C.3       5 UNK         0.0224 
     63 CB        -48.6050  -28.4930   12.0165 C.3       5 UNK        -0.1978 
     64 N         -46.8320  -26.8517   11.5452 N.am      5 UNK        -0.4737 
     65 C         -45.8420  -25.9978   11.8405 C.2       4 UNK         0.5027 
     66 O         -45.7154  -25.4583   12.9392 O.2       4 UNK        -0.5211 
     67 CA        -44.8466  -25.6618   10.7150 C.3       4 UNK         0.0297 
     68 CB        -43.7164  -26.7018   10.6690 C.3       4 UNK        -0.1993 
     69 N         -45.4765  -25.5633    9.3948 N.am      4 UNK        -0.4486 
     70 C         -46.3761  -24.6301    9.0541 C.2       3 UNK         0.4961 
     71 O         -46.7399  -23.7269    9.8054 O.2       3 UNK        -0.5105 
     72 CA        -47.0169  -24.7404    7.6592 C.3       3 UNK         0.0299 
     73 CB        -46.1739  -23.9849    6.6203 C.3       3 UNK        -0.1972 
     74 N         -47.2764  -26.1045    7.1798 N.am      3 UNK        -0.4305 
     75 C         -47.9177  -27.0662    7.8580 C.2       2 UNK         0.5006 
     76 O         -48.2389  -26.9802    9.0431 O.2       2 UNK        -0.5106 
     77 CA        -48.3344  -28.3029    7.0556 C.3       2 UNK         0.0296 
     78 CB        -48.3895  -29.5685    7.9282 C.3       2 UNK        -0.2002 
     79 N         -49.6628  -28.0240    6.5181 N.am      2 UNK        -0.4032 
     80 C         -49.8883  -27.4889    5.3119 C.2       1 UNK         0.5000 
     81 O         -49.0185  -27.3630    4.4440 O.2       1 UNK        -0.5238 
     82 H82       -51.4940  -24.1913    2.1996 H         1 UNK         0.0889 
     83 H83       -50.0111  -23.4074    2.7483 H         1 UNK         0.0889 
     84 H84       -51.5768  -22.8580    3.3527 H         1 UNK         0.0889 
     85 H85       -51.7895  -26.1821    3.1634 H         1 UNK         0.3028 
     86 H86       -51.7070  -26.6103    5.9804 H         1 UNK         0.0864 
     87 H87       -52.0445  -29.0949    5.2238 H         1 UNK         0.0720 
     88 H88       -52.0252  -28.5047    3.5884 H         1 UNK         0.0720 
     89 H89       -55.5589  -28.4293    6.4669 H         1 UNK         0.0814 
     90 H90       -54.6278  -29.7857    5.8867 H         1 UNK         0.0814 
     91 H91       -53.9469  -26.4821    7.6188 H         1 UNK         0.1469 
     92 H92       -51.2704  -28.2586   10.4552 H         1 UNK         0.1381 
     93 H93       -53.1189  -30.6907    7.4514 H         1 UNK         0.1206 
     94 H94       -50.9129  -31.3551    8.7430 H         1 UNK         0.0813 
     95 H95       -50.6296  -30.5560   10.2697 H         1 UNK         0.0813 
     96 H96       -52.2411  -31.1412   12.6252 H         1 UNK         0.0638 
     97 H97       -53.0641  -30.0147   11.5867 H         1 UNK         0.0638 
     98 H98       -55.0427  -31.7716   11.5737 H         1 UNK         0.0568 
     99 H99       -54.2756  -34.7725   13.3477 H         1 UNK         0.3450 
    100 H100      -54.4620  -34.0436   11.7727 H         1 UNK         0.3450 
    101 H101      -54.4865  -29.5976   13.3301 H         1 UNK         0.2987 
    102 H102      -57.8785  -28.8509   13.6871 H         1 UNK         0.0766 
    103 H103      -57.8057  -30.2335   15.7648 H         1 UNK         0.0798 
    104 H104      -57.5700  -28.5356   16.1401 H         1 UNK         0.0798 
    105 H105      -56.1924  -29.6392   16.1290 H         1 UNK         0.0798 
    106 H106      -55.4943  -27.6704   14.8063 H         1 UNK         0.3198 
    107 H107      -54.1195  -26.3418   11.9823 H         1 UNK         0.0843 
    108 H108      -55.9185  -24.5348   13.6870 H         1 UNK         0.0831 
    109 H109      -55.9711  -24.6635   11.9345 H         1 UNK         0.0831 
    110 H110      -54.5430  -24.0074   12.7149 H         1 UNK         0.0831 
    111 H111      -53.8628  -25.4946   14.7029 H         1 UNK         0.3133 
    112 H112      -52.7167  -27.2323   16.4040 H         1 UNK         0.0566 
    113 H113      -50.2648  -28.0606   14.7726 H         1 UNK         0.0814 
    114 H114      -51.3527  -29.1430   15.6285 H         1 UNK         0.0814 
    115 H115      -50.3569  -28.0115   16.5301 H         1 UNK         0.0814 
    116 H116      -50.6108  -25.6170   15.0838 H         1 UNK         0.3091 
    117 H117      -51.7399  -22.8395   15.1465 H         1 UNK         0.0702 
    118 H118      -51.0981  -21.4233   17.1165 H         1 UNK         0.0785 
    119 H119      -51.3200  -22.8151   18.1772 H         1 UNK         0.0785 
    120 H120      -52.6849  -22.1506   17.2963 H         1 UNK         0.0785 
    121 H121      -49.6031  -23.1382   14.8583 H         1 UNK         0.2998 
    122 H122      -46.8880  -23.3153   16.7512 H         1 UNK         0.0697 
    123 H123      -45.8904  -25.4131   15.8024 H         1 UNK         0.0825 
    124 H124      -47.5081  -26.0689   15.5581 H         1 UNK         0.0825 
    125 H125      -46.9234  -25.7466   17.1818 H         1 UNK         0.0825 
    126 H126      -47.2635  -24.1354   13.9865 H         1 UNK         0.3029 
    127 H127      -47.8061  -20.8457   12.7444 H         1 UNK         0.0897 
    128 H128      -45.3118  -21.0214   12.8685 H         1 UNK         0.0792 
    129 H129      -45.9027  -21.4348   11.2669 H         1 UNK         0.0792 
    130 H130      -45.3968  -22.7078   12.3757 H         1 UNK         0.0792 
    131 H131      -47.6080  -23.3059   11.3628 H         1 UNK         0.3086 
    132 H132      -50.9840  -24.4131   11.9077 H         1 UNK         0.0583 
    133 H133      -51.2103  -22.9605    9.9888 H         1 UNK         0.1020 
    134 H134      -49.5635  -23.2226    9.4858 H         1 UNK         0.1020 
    135 H135      -52.0538  -25.9954   10.7688 H         1 UNK         0.0694 
    136 H136      -53.1983  -25.2376    9.6812 H         1 UNK         0.0694 
    137 H137      -48.8175  -25.6837   10.5676 H         1 UNK         0.2989 
    138 H138      -47.5029  -27.3515   13.4553 H         1 UNK         0.1055 
    139 H139      -49.4260  -28.7573   12.6834 H         1 UNK         0.0806 
    140 H140      -47.9026  -29.3264   12.0216 H         1 UNK         0.0806 
    141 H141      -49.0193  -28.4149   11.0133 H         1 UNK         0.0806 
    142 H142      -46.9402  -27.1619   10.5855 H         1 UNK         0.3061 
    143 H143      -44.4056  -24.6899   10.9468 H         1 UNK         0.0734 
    144 H144      -44.0896  -27.6954   10.4178 H         1 UNK         0.0832 
    145 H145      -42.9565  -26.4313    9.9357 H         1 UNK         0.0832 
    146 H146      -43.2178  -26.7767   11.6366 H         1 UNK         0.0832 
    147 H147      -45.2457  -26.2752    8.7172 H         1 UNK         0.3156 
    148 H148      -47.9896  -24.2481    7.7197 H         1 UNK         0.0589 
    149 H149      -46.6865  -23.9275    5.6598 H         1 UNK         0.0808 
    150 H150      -45.2069  -24.4630    6.4593 H         1 UNK         0.0808 
    151 H151      -45.9821  -22.9603    6.9429 H         1 UNK         0.0808 
    152 H152      -47.0895  -26.2704    6.2006 H         1 UNK         0.3098 
    153 H153      -47.6136  -28.4741    6.2531 H         1 UNK         0.0720 
    154 H154      -47.4062  -29.8002    8.3390 H         1 UNK         0.0791 
    155 H155      -48.7152  -30.4340    7.3511 H         1 UNK         0.0791 
    156 H156      -49.0717  -29.4505    8.7687 H         1 UNK         0.0791 
    157 H157      -50.4234  -28.0609    7.1844 H         1 UNK         0.3028 
@<TRIPOS>BOND
     1    1    2 1    
     2    1   82 1    
     3    1   83 1    
     4    1   84 1    
     5    2    3 2    
     6    2    4 am   BACKBONE|DICT|INTERRES
     7    4    5 1    
     8    4   85 1    
     9    5    6 1    
    10    5   80 1    
    11    5   86 1    
    12    6    7 1    
    13    6   87 1    
    14    6   88 1    
    15    7    8 1    
    16    8    9 1    
    17    8   89 1    
    18    8   90 1    
    19    9   10 ar   
    20    9   14 ar   
    21   10   11 ar   
    22   10   91 1    
    23   11   12 ar   
    24   11   58 1    
    25   12   13 ar   
    26   12   92 1    
    27   13   14 ar   
    28   13   15 1    
    29   14   93 1    
    30   15   16 1    
    31   15   94 1    
    32   15   95 1    
    33   16   17 1    
    34   17   18 1    
    35   17   96 1    
    36   17   97 1    
    37   18   19 1    
    38   18   22 1    
    39   18   98 1    
    40   19   20 am   BACKBONE|DICT|INTERRES
    41   19   21 2    
    42   20   99 1    
    43   20  100 1    
    44   22   23 am   BACKBONE|DICT|INTERRES
    45   22  101 1    
    46   23   24 2    
    47   23   25 1    
    48   25   26 1    
    49   25   27 1    
    50   25  102 1    
    51   26  103 1    
    52   26  104 1    
    53   26  105 1    
    54   27   28 am   BACKBONE|DICT|INTERRES
    55   27  106 1    
    56   28   29 2    
    57   28   30 1    
    58   30   31 1    
    59   30   32 1    
    60   30  107 1    
    61   31  108 1    
    62   31  109 1    
    63   31  110 1    
    64   32   33 am   BACKBONE|DICT|INTERRES
    65   32  111 1    
    66   33   34 2    
    67   33   35 1    
    68   35   36 1    
    69   35   37 1    
    70   35  112 1    
    71   36  113 1    
    72   36  114 1    
    73   36  115 1    
    74   37   38 am   BACKBONE|DICT|INTERRES
    75   37  116 1    
    76   38   39 2    
    77   38   40 1    
    78   40   41 1    
    79   40   42 1    
    80   40  117 1    
    81   41  118 1    
    82   41  119 1    
    83   41  120 1    
    84   42   43 am   BACKBONE|DICT|INTERRES
    85   42  121 1    
    86   43   44 2    
    87   43   45 1    
    88   45   46 1    
    89   45   47 1    
    90   45  122 1    
    91   46  123 1    
    92   46  124 1    
    93   46  125 1    
    94   47   48 am   BACKBONE|DICT|INTERRES
    95   47  126 1    
    96   48   49 2    
    97   48   50 1    
    98   50   51 1    
    99   50   52 1    
   100   50  127 1    
   101   51  128 1    
   102   51  129 1    
   103   51  130 1    
   104   52   53 am   BACKBONE|DICT|INTERRES
   105   52  131 1    
   106   53   54 2    
   107   53   55 1    
   108   55   56 1    
   109   55   59 1    
   110   55  132 1    
   111   56   57 1    
   112   56  133 1    
   113   56  134 1    
   114   57   58 1    
   115   58  135 1    
   116   58  136 1    
   117   59   60 am   BACKBONE|DICT|INTERRES
   118   59  137 1    
   119   60   61 2    
   120   60   62 1    
   121   62   63 1    
   122   62   64 1    
   123   62  138 1    
   124   63  139 1    
   125   63  140 1    
   126   63  141 1    
   127   64   65 am   BACKBONE|DICT|INTERRES
   128   64  142 1    
   129   65   66 2    
   130   65   67 1    
   131   67   68 1    
   132   67   69 1    
   133   67  143 1    
   134   68  144 1    
   135   68  145 1    
   136   68  146 1    
   137   69   70 am   BACKBONE|DICT|INTERRES
   138   69  147 1    
   139   70   71 2    
   140   70   72 1    
   141   72   73 1    
   142   72   74 1    
   143   72  148 1    
   144   73  149 1    
   145   73  150 1    
   146   73  151 1    
   147   74   75 am   BACKBONE|DICT|INTERRES
   148   74  152 1    
   149   75   76 2    
   150   75   77 1    
   151   77   78 1    
   152   77   79 1    
   153   77  153 1    
   154   78  154 1    
   155   78  155 1    
   156   78  156 1    
   157   79   80 am   BACKBONE|DICT|INTERRES
   158   79  157 1    
   159   80   81 2    
@<TRIPOS>SUBSTRUCTURE
     1 UNK         1 GROUP             0       ****    0 ROOT    
