@<TRIPOS>MOLECULE
3R207
157   159    1
SMALL
USER_CHARGES


@<TRIPOS>ATOM
      1 CA        -51.7516  -26.9810    1.9483 C.3       0 UNK        -0.1975 
      2 C         -52.1310  -26.4384    3.3185 C.2       0 UNK         0.4852 
      3 O         -52.9815  -25.5515    3.4105 O.2       0 UNK        -0.5216 
      4 N         -51.5138  -26.9714    4.3804 N.am      1 UNK        -0.4461 
      5 CA        -51.6872  -26.5271    5.7668 C.3       1 UNK         0.0864 
      6 C6        -51.4540  -27.6947    6.7633 C.3       14 UNK        -0.0898 
      7 S7        -49.7691  -28.4004    6.7302 S.3       14 UNK        -0.2598 
      8 C8        -50.0708  -30.0974    7.3258 C.3       14 UNK         0.0286 
      9 C9        -50.0843  -30.1826    8.8471 C.ar      14 UNK        -0.0844 
     10 C10       -48.9111  -30.5017    9.5388 C.ar      14 UNK        -0.0881 
     11 C11       -48.9101  -30.6073   10.9333 C.ar      14 UNK        -0.0643 
     12 C12       -50.0941  -30.3845   11.6392 C.ar      14 UNK        -0.0930 
     13 C13       -51.2731  -30.0599   10.9613 C.ar      14 UNK        -0.0827 
     14 C14       -51.2657  -29.9667    9.5650 C.ar      14 UNK        -0.1249 
     15 C15       -52.5401  -29.7687   11.7485 C.3       14 UNK         0.0141 
     16 S16       -53.7070  -31.1600   11.7090 S.3       14 UNK        -0.2313 
     17 C17       -54.8043  -30.7355   13.1048 C.3       14 UNK        -0.0915 
     18 CA        -56.0093  -29.8472   12.6940 C.3       13 UNK         0.0968 
     19 C         -57.0978  -29.8123   13.8079 C.2       13 UNK         0.5732 
     20 N         -57.5047  -28.6600   14.3291 N.am      13 UNK        -0.7310 
     21 O         -57.6018  -30.8619   14.2012 O.2       13 UNK        -0.5035 
     22 N         -55.5710  -28.5128   12.2595 N.am      13 UNK        -0.4233 
     23 C         -56.2049  -27.7609   11.3514 C.2       13 UNK         0.4989 
     24 O         -57.1809  -28.1517   10.7078 O.2       13 UNK        -0.4996 
     25 CA        -55.6600  -26.3341   11.1203 C.3       12 UNK         0.0216 
     26 CB        -56.7200  -25.3846   10.5229 C.3       12 UNK        -0.1964 
     27 N         -55.0470  -25.7245   12.3076 N.am      12 UNK        -0.4276 
     28 C         -55.6059  -25.5361   13.5113 C.2       12 UNK         0.5020 
     29 O         -56.7512  -25.8815   13.8104 O.2       12 UNK        -0.5489 
     30 CA        -54.7024  -24.8858   14.5737 C.3       11 UNK         0.0294 
     31 CB        -55.4869  -23.8728   15.4257 C.3       11 UNK        -0.2019 
     32 N         -54.0261  -25.8305   15.4715 N.am      11 UNK        -0.4493 
     33 C         -53.4696  -27.0174   15.1840 C.2       11 UNK         0.4932 
     34 O         -53.5362  -27.5898   14.0954 O.2       11 UNK        -0.5029 
     35 CA        -52.6183  -27.6199   16.3097 C.3       10 UNK         0.0280 
     36 CB        -52.2503  -29.0943   16.0609 C.3       10 UNK        -0.1976 
     37 N         -51.3946  -26.8276   16.3926 N.am      10 UNK        -0.4242 
     38 C         -51.1888  -25.8112   17.2392 C.2       10 UNK         0.5072 
     39 O         -51.9564  -25.5153   18.1561 O.2       10 UNK        -0.5224 
     40 CA        -49.9468  -24.9416   16.9777 C.3       9 UNK         0.0343 
     41 CB        -48.6517  -25.7080   17.2935 C.3       9 UNK        -0.2003 
     42 N         -49.9054  -24.4401   15.6008 N.am      9 UNK        -0.4272 
     43 C         -50.7955  -23.5858   15.0684 C.2       9 UNK         0.4988 
     44 O         -51.7174  -23.0700   15.7000 O.2       9 UNK        -0.5108 
     45 CA        -50.6454  -23.2628   13.5744 C.3       8 UNK         0.0248 
     46 CB        -49.6330  -22.1268   13.3534 C.3       8 UNK        -0.2001 
     47 N         -50.2332  -24.4517   12.8284 N.am      8 UNK        -0.4140 
     48 C         -51.0901  -25.3264   12.2842 C.2       8 UNK         0.5028 
     49 O         -52.3061  -25.1439   12.2224 O.2       8 UNK        -0.5428 
     50 CA        -50.5149  -26.6166   11.6784 C.3       7 UNK         0.0264 
     51 CB        -50.4698  -26.4970   10.1536 C.3       7 UNK        -0.1988 
     52 N         -49.1810  -26.9779   12.1488 N.am      7 UNK        -0.4454 
     53 C         -48.8701  -27.3819   13.3871 C.2       7 UNK         0.5027 
     54 O         -49.6972  -27.5500   14.2813 O.2       7 UNK        -0.5083 
     55 CA        -47.3670  -27.5315   13.7057 C.3       6 UNK         0.0844 
     56 C56       -46.8923  -29.0035   13.5987 C.3       14 UNK        -0.0967 
     57 S57       -46.5249  -29.5690   11.8986 S.3       14 UNK        -0.2604 
     58 C58       -47.6347  -30.9925   11.6674 C.3       14 UNK         0.0134 
     59 N         -46.5383  -26.5973   12.9295 N.am      6 UNK        -0.4116 
     60 C         -46.6683  -25.2637   12.9420 C.2       5 UNK         0.5034 
     61 O         -47.4117  -24.6697   13.7244 O.2       5 UNK        -0.5045 
     62 CA        -45.9571  -24.4637   11.8376 C.3       5 UNK         0.0224 
     63 CB        -44.5089  -24.1170   12.2331 C.3       5 UNK        -0.1978 
     64 N         -46.0430  -25.0810   10.5014 N.am      5 UNK        -0.4737 
     65 C         -45.4304  -26.1872   10.0466 C.2       4 UNK         0.5027 
     66 O         -44.6799  -26.8749   10.7375 O.2       4 UNK        -0.5211 
     67 CA        -45.7198  -26.6352    8.5992 C.3       4 UNK         0.0297 
     68 CB        -46.5659  -27.9179    8.5873 C.3       4 UNK        -0.1993 
     69 N         -46.3930  -25.6221    7.7852 N.am      4 UNK        -0.4486 
     70 C         -45.8224  -24.4982    7.3332 C.2       3 UNK         0.4961 
     71 O         -44.6365  -24.2167    7.5080 O.2       3 UNK        -0.5105 
     72 CA        -46.7196  -23.5112    6.5660 C.3       3 UNK         0.0299 
     73 CB        -46.4407  -23.5984    5.0568 C.3       3 UNK        -0.1972 
     74 N         -48.1613  -23.6689    6.7888 N.am      3 UNK        -0.4305 
     75 C         -48.8181  -23.5330    7.9471 C.2       2 UNK         0.5006 
     76 O         -48.2603  -23.3996    9.0377 O.2       2 UNK        -0.5106 
     77 CA        -50.3590  -23.5368    7.8779 C.3       2 UNK         0.0296 
     78 CB        -50.8795  -22.2649    7.1798 C.3       2 UNK        -0.2002 
     79 N         -50.9753  -24.7437    7.2997 N.am      2 UNK        -0.4032 
     80 C         -50.8381  -25.2673    6.0706 C.2       1 UNK         0.5000 
     81 O         -50.0948  -24.7946    5.2044 O.2       1 UNK        -0.5238 
     82 H82       -51.0043  -27.7715    2.0156 H         1 UNK         0.0889 
     83 H83       -51.3449  -26.1821    1.3288 H         1 UNK         0.0889 
     84 H84       -52.6306  -27.3871    1.4485 H         1 UNK         0.0889 
     85 H85       -50.7976  -27.6704    4.2436 H         1 UNK         0.3028 
     86 H86       -52.7281  -26.2177    5.8862 H         1 UNK         0.0864 
     87 H87       -52.1645  -28.4899    6.5325 H         1 UNK         0.0720 
     88 H88       -51.6932  -27.3970    7.7819 H         1 UNK         0.0720 
     89 H89       -49.2855  -30.7434    6.9305 H         1 UNK         0.0814 
     90 H90       -51.0046  -30.4842    6.9157 H         1 UNK         0.0814 
     91 H91       -47.9946  -30.6734    8.9910 H         1 UNK         0.1469 
     92 H92       -50.0961  -30.4564   12.7182 H         1 UNK         0.1381 
     93 H93       -52.1772  -29.7169    9.0399 H         1 UNK         0.1206 
     94 H94       -53.0228  -28.8801   11.3413 H         1 UNK         0.0813 
     95 H95       -52.2863  -29.5355   12.7828 H         1 UNK         0.0813 
     96 H96       -54.2283  -30.2622   13.9003 H         1 UNK         0.0638 
     97 H97       -55.1525  -31.6847   13.5158 H         1 UNK         0.0638 
     98 H98       -56.4903  -30.3388   11.8464 H         1 UNK         0.0568 
     99 H99       -58.2159  -28.6740   15.0418 H         1 UNK         0.3450 
    100 H100      -57.1309  -27.7688   14.0155 H         1 UNK         0.3450 
    101 H101      -54.8080  -28.1046   12.7948 H         1 UNK         0.2987 
    102 H102      -54.8572  -26.4371   10.3888 H         1 UNK         0.0766 
    103 H103      -56.3064  -24.3926   10.3414 H         1 UNK         0.0798 
    104 H104      -57.5791  -25.2738   11.1856 H         1 UNK         0.0798 
    105 H105      -57.0907  -25.7580    9.5675 H         1 UNK         0.0798 
    106 H106      -54.0572  -25.4826   12.2168 H         1 UNK         0.3198 
    107 H107      -53.9210  -24.3272   14.0569 H         1 UNK         0.0843 
    108 H108      -56.2343  -24.3641   16.0501 H         1 UNK         0.0831 
    109 H109      -56.0112  -23.1543   14.7942 H         1 UNK         0.0831 
    110 H110      -54.8230  -23.3041   16.0775 H         1 UNK         0.0831 
    111 H111      -53.8620  -25.4807   16.4056 H         1 UNK         0.3133 
    112 H112      -53.1841  -27.5645   17.2420 H         1 UNK         0.0566 
    113 H113      -51.6426  -29.4907   16.8741 H         1 UNK         0.0814 
    114 H114      -53.1461  -29.7120   15.9946 H         1 UNK         0.0814 
    115 H115      -51.6899  -29.2249   15.1347 H         1 UNK         0.0814 
    116 H116      -50.7241  -26.9882   15.6408 H         1 UNK         0.3091 
    117 H117      -49.9980  -24.0772   17.6432 H         1 UNK         0.0702 
    118 H118      -47.7721  -25.0831   17.1369 H         1 UNK         0.0785 
    119 H119      -48.5438  -26.5993   16.6757 H         1 UNK         0.0785 
    120 H120      -48.6378  -26.0322   18.3349 H         1 UNK         0.0785 
    121 H121      -49.1453  -24.7680   15.0184 H         1 UNK         0.2998 
    122 H122      -51.6142  -22.9175   13.2068 H         1 UNK         0.0697 
    123 H123      -48.6493  -22.3665   13.7572 H         1 UNK         0.0825 
    124 H124      -49.9677  -21.2114   13.8429 H         1 UNK         0.0825 
    125 H125      -49.5144  -21.9027   12.2931 H         1 UNK         0.0825 
    126 H126      -49.2448  -24.6710   12.8443 H         1 UNK         0.3029 
    127 H127      -51.1963  -27.4189   11.9562 H         1 UNK         0.0897 
    128 H128      -51.4619  -26.2713    9.7638 H         1 UNK         0.0792 
    129 H129      -50.1325  -27.4237    9.6925 H         1 UNK         0.0792 
    130 H130      -49.7930  -25.7045    9.8363 H         1 UNK         0.0792 
    131 H131      -48.4292  -26.8971   11.4812 H         1 UNK         0.3086 
    132 H132      -47.2535  -27.2390   14.7511 H         1 UNK         0.0583 
    133 H133      -45.9703  -29.1145   14.1713 H         1 UNK         0.1020 
    134 H134      -47.6050  -29.6757   14.0805 H         1 UNK         0.1020 
    135 H135      -47.1047  -31.7482   11.0857 H         1 UNK         0.0694 
    136 H136      -47.8615  -31.4625   12.6252 H         1 UNK         0.0694 
    137 H137      -45.9001  -27.0054   12.2510 H         1 UNK         0.2989 
    138 H138      -46.4993  -23.5201   11.7499 H         1 UNK         0.1055 
    139 H139      -44.4889  -23.5410   13.1593 H         1 UNK         0.0806 
    140 H140      -44.0230  -23.5138   11.4660 H         1 UNK         0.0806 
    141 H141      -43.9003  -25.0067   12.3959 H         1 UNK         0.0806 
    142 H142      -46.6636  -24.6001    9.8572 H         1 UNK         0.3061 
    143 H143      -44.7578  -26.8589    8.1331 H         1 UNK         0.0734 
    144 H144      -46.7541  -28.2627    7.5705 H         1 UNK         0.0832 
    145 H145      -46.0500  -28.7270    9.1048 H         1 UNK         0.0832 
    146 H146      -47.5294  -27.7769    9.0787 H         1 UNK         0.0832 
    147 H147      -47.3698  -25.7728    7.5792 H         1 UNK         0.3156 
    148 H148      -46.4502  -22.5089    6.9049 H         1 UNK         0.0589 
    149 H149      -46.7293  -24.5688    4.6505 H         1 UNK         0.0808 
    150 H150      -46.9846  -22.8298    4.5073 H         1 UNK         0.0808 
    151 H151      -45.3801  -23.4568    4.8438 H         1 UNK         0.0808 
    152 H152      -48.7326  -23.8802    5.9714 H         1 UNK         0.3098 
    153 H153      -50.7086  -23.4970    8.9111 H         1 UNK         0.0720 
    154 H154      -51.9648  -22.1925    7.2502 H         1 UNK         0.0791 
    155 H155      -50.6124  -22.2373    6.1229 H         1 UNK         0.0791 
    156 H156      -50.4658  -21.3679    7.6428 H         1 UNK         0.0791 
    157 H157      -51.6114  -25.2176    7.9237 H         1 UNK         0.3028 
@<TRIPOS>BOND
     1    1    2 1    
     2    1   82 1    
     3    1   83 1    
     4    1   84 1    
     5    2    3 2    
     6    2    4 am   BACKBONE|DICT|INTERRES
     7    4    5 1    
     8    4   85 1    
     9    5    6 1    
    10    5   80 1    
    11    5   86 1    
    12    6    7 1    
    13    6   87 1    
    14    6   88 1    
    15    7    8 1    
    16    8    9 1    
    17    8   89 1    
    18    8   90 1    
    19    9   10 ar   
    20    9   14 ar   
    21   10   11 ar   
    22   10   91 1    
    23   11   12 ar   
    24   11   58 1    
    25   12   13 ar   
    26   12   92 1    
    27   13   14 ar   
    28   13   15 1    
    29   14   93 1    
    30   15   16 1    
    31   15   94 1    
    32   15   95 1    
    33   16   17 1    
    34   17   18 1    
    35   17   96 1    
    36   17   97 1    
    37   18   19 1    
    38   18   22 1    
    39   18   98 1    
    40   19   20 am   BACKBONE|DICT|INTERRES
    41   19   21 2    
    42   20   99 1    
    43   20  100 1    
    44   22   23 am   BACKBONE|DICT|INTERRES
    45   22  101 1    
    46   23   24 2    
    47   23   25 1    
    48   25   26 1    
    49   25   27 1    
    50   25  102 1    
    51   26  103 1    
    52   26  104 1    
    53   26  105 1    
    54   27   28 am   BACKBONE|DICT|INTERRES
    55   27  106 1    
    56   28   29 2    
    57   28   30 1    
    58   30   31 1    
    59   30   32 1    
    60   30  107 1    
    61   31  108 1    
    62   31  109 1    
    63   31  110 1    
    64   32   33 am   BACKBONE|DICT|INTERRES
    65   32  111 1    
    66   33   34 2    
    67   33   35 1    
    68   35   36 1    
    69   35   37 1    
    70   35  112 1    
    71   36  113 1    
    72   36  114 1    
    73   36  115 1    
    74   37   38 am   BACKBONE|DICT|INTERRES
    75   37  116 1    
    76   38   39 2    
    77   38   40 1    
    78   40   41 1    
    79   40   42 1    
    80   40  117 1    
    81   41  118 1    
    82   41  119 1    
    83   41  120 1    
    84   42   43 am   BACKBONE|DICT|INTERRES
    85   42  121 1    
    86   43   44 2    
    87   43   45 1    
    88   45   46 1    
    89   45   47 1    
    90   45  122 1    
    91   46  123 1    
    92   46  124 1    
    93   46  125 1    
    94   47   48 am   BACKBONE|DICT|INTERRES
    95   47  126 1    
    96   48   49 2    
    97   48   50 1    
    98   50   51 1    
    99   50   52 1    
   100   50  127 1    
   101   51  128 1    
   102   51  129 1    
   103   51  130 1    
   104   52   53 am   BACKBONE|DICT|INTERRES
   105   52  131 1    
   106   53   54 2    
   107   53   55 1    
   108   55   56 1    
   109   55   59 1    
   110   55  132 1    
   111   56   57 1    
   112   56  133 1    
   113   56  134 1    
   114   57   58 1    
   115   58  135 1    
   116   58  136 1    
   117   59   60 am   BACKBONE|DICT|INTERRES
   118   59  137 1    
   119   60   61 2    
   120   60   62 1    
   121   62   63 1    
   122   62   64 1    
   123   62  138 1    
   124   63  139 1    
   125   63  140 1    
   126   63  141 1    
   127   64   65 am   BACKBONE|DICT|INTERRES
   128   64  142 1    
   129   65   66 2    
   130   65   67 1    
   131   67   68 1    
   132   67   69 1    
   133   67  143 1    
   134   68  144 1    
   135   68  145 1    
   136   68  146 1    
   137   69   70 am   BACKBONE|DICT|INTERRES
   138   69  147 1    
   139   70   71 2    
   140   70   72 1    
   141   72   73 1    
   142   72   74 1    
   143   72  148 1    
   144   73  149 1    
   145   73  150 1    
   146   73  151 1    
   147   74   75 am   BACKBONE|DICT|INTERRES
   148   74  152 1    
   149   75   76 2    
   150   75   77 1    
   151   77   78 1    
   152   77   79 1    
   153   77  153 1    
   154   78  154 1    
   155   78  155 1    
   156   78  156 1    
   157   79   80 am   BACKBONE|DICT|INTERRES
   158   79  157 1    
   159   80   81 2    
@<TRIPOS>SUBSTRUCTURE
     1 UNK         1 GROUP             0       ****    0 ROOT    
