@<TRIPOS>MOLECULE
3R207
157   159    1
SMALL
USER_CHARGES


@<TRIPOS>ATOM
      1 CA        -45.0908  -26.3083    6.4924 C.3       0 UNK        -0.1975 
      2 C         -46.3243  -26.5269    5.6286 C.2       0 UNK         0.4852 
      3 O         -46.4467  -25.9268    4.5594 O.2       0 UNK        -0.5216 
      4 N         -47.2434  -27.3860    6.0823 N.am      1 UNK        -0.4461 
      5 CA        -48.4608  -27.7996    5.3765 C.3       1 UNK         0.0864 
      6 C6        -48.9019  -29.2306    5.7887 C.3       14 UNK        -0.0898 
      7 S7        -48.9552  -29.4966    7.5924 S.3       14 UNK        -0.2598 
      8 C8        -50.1789  -30.8368    7.7246 C.3       14 UNK         0.0286 
      9 C9        -50.5095  -31.1065    9.1837 C.ar      14 UNK        -0.0844 
     10 C10       -49.5307  -31.6169   10.0373 C.ar      14 UNK        -0.0881 
     11 C11       -49.7887  -31.7859   11.3998 C.ar      14 UNK        -0.0643 
     12 C12       -51.0521  -31.4578   11.9059 C.ar      14 UNK        -0.0930 
     13 C13       -52.0553  -30.9772   11.0544 C.ar      14 UNK        -0.0827 
     14 C14       -51.7769  -30.8144    9.6922 C.ar      14 UNK        -0.1249 
     15 C15       -53.4406  -30.6438   11.6002 C.3       14 UNK         0.0141 
     16 S16       -53.9768  -28.9723   11.1172 S.3       14 UNK        -0.2313 
     17 C17       -55.5496  -28.8036   12.0226 C.3       14 UNK        -0.0915 
     18 CA        -56.2944  -27.4942   11.6495 C.3       13 UNK         0.0968 
     19 C         -57.6608  -27.3783   12.3873 C.2       13 UNK         0.5732 
     20 N         -57.9296  -26.3265   13.1536 N.am      13 UNK        -0.7310 
     21 O         -58.5070  -28.2583   12.2462 O.2       13 UNK        -0.5035 
     22 N         -55.4260  -26.3206   11.8081 N.am      13 UNK        -0.4233 
     23 C         -55.5529  -25.1679   11.1433 C.2       13 UNK         0.4989 
     24 O         -56.3964  -24.9673   10.2674 O.2       13 UNK        -0.4996 
     25 CA        -54.5623  -24.0565   11.5373 C.3       12 UNK         0.0216 
     26 CB        -55.0258  -22.6486   11.1061 C.3       12 UNK        -0.1964 
     27 N         -54.2197  -24.0871   12.9661 N.am      12 UNK        -0.4276 
     28 C         -55.0551  -23.9271   14.0030 C.2       12 UNK         0.5020 
     29 O         -56.2686  -23.7419   13.8847 O.2       12 UNK        -0.5489 
     30 CA        -54.4190  -24.0099   15.4022 C.3       11 UNK         0.0294 
     31 CB        -55.4502  -23.8741   16.5434 C.3       11 UNK        -0.2019 
     32 N         -53.5892  -25.2056   15.5926 N.am      11 UNK        -0.4493 
     33 C         -53.9796  -26.4903   15.5567 C.2       11 UNK         0.4932 
     34 O         -55.1228  -26.8426   15.2663 O.2       11 UNK        -0.5029 
     35 CA        -52.9392  -27.5774   15.9114 C.3       10 UNK         0.0280 
     36 CB        -52.9928  -28.7517   14.9206 C.3       10 UNK        -0.1976 
     37 N         -51.5624  -27.0844   15.9762 N.am      10 UNK        -0.4242 
     38 C         -51.0041  -26.4383   17.0087 C.2       10 UNK         0.5072 
     39 O         -51.5706  -26.2396   18.0833 O.2       10 UNK        -0.5224 
     40 CA        -49.5964  -25.8574   16.7740 C.3       9 UNK         0.0343 
     41 CB        -48.5140  -26.9017   17.0893 C.3       9 UNK        -0.2003 
     42 N         -49.4147  -25.3455   15.4097 N.am      9 UNK        -0.4272 
     43 C         -50.1224  -24.3354   14.8787 C.2       9 UNK         0.4988 
     44 O         -50.9638  -23.6866   15.5002 O.2       9 UNK        -0.5108 
     45 CA        -49.9021  -24.0405   13.3885 C.3       8 UNK         0.0248 
     46 CB        -48.6622  -23.1573   13.1842 C.3       8 UNK        -0.2001 
     47 N         -49.8002  -25.2758   12.6056 N.am      8 UNK        -0.4140 
     48 C         -50.8488  -26.0755   12.3517 C.2       8 UNK         0.5028 
     49 O         -52.0026  -25.7992   12.6772 O.2       8 UNK        -0.5428 
     50 CA        -50.5734  -27.4225   11.6634 C.3       7 UNK         0.0264 
     51 CB        -50.7152  -27.2925   10.1421 C.3       7 UNK        -0.1988 
     52 N         -49.2679  -27.9878   12.0150 N.am      7 UNK        -0.4454 
     53 C         -48.9802  -28.4443   13.2452 C.2       7 UNK         0.5027 
     54 O         -49.8115  -28.4929   14.1515 O.2       7 UNK        -0.5083 
     55 CA        -47.5212  -28.8290   13.5746 C.3       6 UNK         0.0844 
     56 C56       -47.3350  -30.3488   13.8002 C.3       14 UNK        -0.0967 
     57 S57       -47.1834  -31.3419   12.2770 S.3       14 UNK        -0.2604 
     58 C58       -48.7021  -32.3548   12.3013 C.3       14 UNK         0.0134 
     59 N         -46.5263  -28.2433   12.6691 N.am      6 UNK        -0.4116 
     60 C         -46.2965  -26.9275   12.5663 C.2       5 UNK         0.5034 
     61 O         -46.9067  -26.0884   13.2340 O.2       5 UNK        -0.5045 
     62 CA        -45.2491  -26.4422   11.5442 C.3       5 UNK         0.0224 
     63 CB        -44.6871  -27.5489   10.6201 C.3       5 UNK        -0.1978 
     64 N         -45.7811  -25.3126   10.7692 N.am      5 UNK        -0.4737 
     65 C         -46.8422  -25.3466    9.9530 C.2       4 UNK         0.5027 
     66 O         -47.4237  -26.3821    9.6189 O.2       4 UNK        -0.5211 
     67 CA        -47.3512  -23.9941    9.4430 C.3       4 UNK         0.0297 
     68 CB        -46.4844  -23.4442    8.2990 C.3       4 UNK        -0.1993 
     69 N         -48.7151  -24.1735    8.9636 N.am      4 UNK        -0.4486 
     70 C         -49.7363  -23.3292    9.1332 C.2       3 UNK         0.4961 
     71 O         -49.6499  -22.2533    9.7269 O.2       3 UNK        -0.5105 
     72 CA        -51.0725  -23.7735    8.5042 C.3       3 UNK         0.0299 
     73 CB        -52.1573  -22.6770    8.5495 C.3       3 UNK        -0.1972 
     74 N         -50.9015  -24.2890    7.1369 N.am      3 UNK        -0.4305 
     75 C         -50.3774  -23.6408    6.0845 C.2       2 UNK         0.5006 
     76 O         -49.9755  -22.4763    6.1197 O.2       2 UNK        -0.5106 
     77 CA        -50.2730  -24.4448    4.7741 C.3       2 UNK         0.0296 
     78 CB        -49.8587  -23.5715    3.5744 C.3       2 UNK        -0.2002 
     79 N         -49.3334  -25.5633    4.8846 N.am      2 UNK        -0.4032 
     80 C         -49.5780  -26.7360    5.4828 C.2       1 UNK         0.5000 
     81 O         -50.6267  -26.9749    6.0867 O.2       1 UNK        -0.5238 
     82 H82       -44.2740  -26.9377    6.1407 H         1 UNK         0.0889 
     83 H83       -45.2840  -26.5506    7.5373 H         1 UNK         0.0889 
     84 H84       -44.7632  -25.2708    6.4384 H         1 UNK         0.0889 
     85 H85       -47.1255  -27.8118    6.9926 H         1 UNK         0.3028 
     86 H86       -48.2210  -27.8585    4.3122 H         1 UNK         0.0864 
     87 H87       -48.1986  -29.9559    5.3767 H         1 UNK         0.0720 
     88 H88       -49.8692  -29.4778    5.3472 H         1 UNK         0.0720 
     89 H89       -49.7848  -31.7419    7.2604 H         1 UNK         0.0814 
     90 H90       -51.0785  -30.5622    7.1715 H         1 UNK         0.0814 
     91 H91       -48.5514  -31.8539    9.6440 H         1 UNK         0.1469 
     92 H92       -51.2570  -31.5866   12.9598 H         1 UNK         0.1381 
     93 H93       -52.5422  -30.4282    9.0329 H         1 UNK         0.1206 
     94 H94       -54.1577  -31.3748   11.2247 H         1 UNK         0.0813 
     95 H95       -53.4543  -30.7194   12.6882 H         1 UNK         0.0813 
     96 H96       -56.1685  -29.6744   11.7989 H         1 UNK         0.0638 
     97 H97       -55.3450  -28.8322   13.0930 H         1 UNK         0.0638 
     98 H98       -56.5474  -27.5672   10.5902 H         1 UNK         0.0568 
     99 H99       -57.2474  -25.5906   13.2898 H         1 UNK         0.3450 
    100 H100      -58.8220  -26.2728   13.6169 H         1 UNK         0.3450 
    101 H101      -54.7077  -26.3949   12.5141 H         1 UNK         0.2987 
    102 H102      -53.6385  -24.2766   11.0001 H         1 UNK         0.0766 
    103 H103      -55.9829  -22.3818   11.5552 H         1 UNK         0.0798 
    104 H104      -54.2983  -21.8878   11.3888 H         1 UNK         0.0798 
    105 H105      -55.1484  -22.5917   10.0239 H         1 UNK         0.0798 
    106 H106      -53.2700  -24.3965   13.1606 H         1 UNK         0.3198 
    107 H107      -53.7422  -23.1570   15.4745 H         1 UNK         0.0843 
    108 H108      -55.9928  -22.9310   16.4679 H         1 UNK         0.0831 
    109 H109      -54.9662  -23.8917   17.5199 H         1 UNK         0.0831 
    110 H110      -56.1897  -24.6753   16.5201 H         1 UNK         0.0831 
    111 H111      -52.6141  -25.0131   15.7909 H         1 UNK         0.3133 
    112 H112      -53.2102  -27.9631   16.8961 H         1 UNK         0.0566 
    113 H113      -52.2466  -29.5101   15.1581 H         1 UNK         0.0814 
    114 H114      -53.9657  -29.2426   14.9465 H         1 UNK         0.0814 
    115 H115      -52.8153  -28.4170   13.8986 H         1 UNK         0.0814 
    116 H116      -50.9841  -27.2778   15.1636 H         1 UNK         0.3091 
    117 H117      -49.4666  -25.0163   17.4583 H         1 UNK         0.0702 
    118 H118      -47.5130  -26.5045   16.9202 H         1 UNK         0.0785 
    119 H119      -48.6286  -27.8007   16.4843 H         1 UNK         0.0785 
    120 H120      -48.5682  -27.2092   18.1345 H         1 UNK         0.0785 
    121 H121      -48.7284  -25.8092   14.8296 H         1 UNK         0.2998 
    122 H122      -50.7683  -23.4801   13.0294 H         1 UNK         0.0697 
    123 H123      -47.7408  -23.6599   13.4763 H         1 UNK         0.0825 
    124 H124      -48.7347  -22.2457   13.7790 H         1 UNK         0.0825 
    125 H125      -48.5673  -22.8487   12.1455 H         1 UNK         0.0825 
    126 H126      -48.8688  -25.5932   12.3678 H         1 UNK         0.3029 
    127 H127      -51.3345  -28.1244   12.0069 H         1 UNK         0.0897 
    128 H128      -50.5850  -28.2559    9.6548 H         1 UNK         0.0792 
    129 H129      -49.9888  -26.6034    9.7183 H         1 UNK         0.0792 
    130 H130      -51.7100  -26.9339    9.8748 H         1 UNK         0.0792 
    131 H131      -48.5460  -27.9634   11.3066 H         1 UNK         0.3086 
    132 H132      -47.3316  -28.3685   14.5463 H         1 UNK         0.0583 
    133 H133      -46.4170  -30.5065   14.3686 H         1 UNK         0.1020 
    134 H134      -48.1274  -30.7426   14.4395 H         1 UNK         0.1020 
    135 H135      -48.4511  -33.3541   11.9430 H         1 UNK         0.0694 
    136 H136      -49.0626  -32.4859   13.3222 H         1 UNK         0.0694 
    137 H137      -46.0237  -28.8877   12.0759 H         1 UNK         0.2989 
    138 H138      -44.4182  -26.0501   12.1329 H         1 UNK         0.1055 
    139 H139      -44.1520  -28.3075   11.1927 H         1 UNK         0.0806 
    140 H140      -43.9757  -27.1348    9.9056 H         1 UNK         0.0806 
    141 H141      -45.4671  -28.0542   10.0493 H         1 UNK         0.0806 
    142 H142      -45.3843  -24.4109   10.9967 H         1 UNK         0.3061 
    143 H143      -47.3305  -23.2908   10.2764 H         1 UNK         0.0734 
    144 H144      -46.7767  -22.4246    8.0467 H         1 UNK         0.0832 
    145 H145      -45.4279  -23.4213    8.5689 H         1 UNK         0.0832 
    146 H146      -46.5864  -24.0437    7.3957 H         1 UNK         0.0832 
    147 H147      -48.8829  -25.0737    8.5333 H         1 UNK         0.3156 
    148 H148      -51.4322  -24.6068    9.1079 H         1 UNK         0.0589 
    149 H149      -51.8637  -21.7922    7.9838 H         1 UNK         0.0808 
    150 H150      -53.1029  -23.0370    8.1443 H         1 UNK         0.0808 
    151 H151      -52.3455  -22.3573    9.5750 H         1 UNK         0.0808 
    152 H152      -51.1377  -25.2675    6.9910 H         1 UNK         0.3098 
    153 H153      -51.2671  -24.8442    4.5614 H         1 UNK         0.0720 
    154 H154      -49.8664  -24.1434    2.6463 H         1 UNK         0.0791 
    155 H155      -48.8585  -23.1556    3.7033 H         1 UNK         0.0791 
    156 H156      -50.5466  -22.7351    3.4429 H         1 UNK         0.0791 
    157 H157      -48.4087  -25.4302    4.4862 H         1 UNK         0.3028 
@<TRIPOS>BOND
     1    1    2 1    
     2    1   82 1    
     3    1   83 1    
     4    1   84 1    
     5    2    3 2    
     6    2    4 am   BACKBONE|DICT|INTERRES
     7    4    5 1    
     8    4   85 1    
     9    5    6 1    
    10    5   80 1    
    11    5   86 1    
    12    6    7 1    
    13    6   87 1    
    14    6   88 1    
    15    7    8 1    
    16    8    9 1    
    17    8   89 1    
    18    8   90 1    
    19    9   10 ar   
    20    9   14 ar   
    21   10   11 ar   
    22   10   91 1    
    23   11   12 ar   
    24   11   58 1    
    25   12   13 ar   
    26   12   92 1    
    27   13   14 ar   
    28   13   15 1    
    29   14   93 1    
    30   15   16 1    
    31   15   94 1    
    32   15   95 1    
    33   16   17 1    
    34   17   18 1    
    35   17   96 1    
    36   17   97 1    
    37   18   19 1    
    38   18   22 1    
    39   18   98 1    
    40   19   20 am   BACKBONE|DICT|INTERRES
    41   19   21 2    
    42   20   99 1    
    43   20  100 1    
    44   22   23 am   BACKBONE|DICT|INTERRES
    45   22  101 1    
    46   23   24 2    
    47   23   25 1    
    48   25   26 1    
    49   25   27 1    
    50   25  102 1    
    51   26  103 1    
    52   26  104 1    
    53   26  105 1    
    54   27   28 am   BACKBONE|DICT|INTERRES
    55   27  106 1    
    56   28   29 2    
    57   28   30 1    
    58   30   31 1    
    59   30   32 1    
    60   30  107 1    
    61   31  108 1    
    62   31  109 1    
    63   31  110 1    
    64   32   33 am   BACKBONE|DICT|INTERRES
    65   32  111 1    
    66   33   34 2    
    67   33   35 1    
    68   35   36 1    
    69   35   37 1    
    70   35  112 1    
    71   36  113 1    
    72   36  114 1    
    73   36  115 1    
    74   37   38 am   BACKBONE|DICT|INTERRES
    75   37  116 1    
    76   38   39 2    
    77   38   40 1    
    78   40   41 1    
    79   40   42 1    
    80   40  117 1    
    81   41  118 1    
    82   41  119 1    
    83   41  120 1    
    84   42   43 am   BACKBONE|DICT|INTERRES
    85   42  121 1    
    86   43   44 2    
    87   43   45 1    
    88   45   46 1    
    89   45   47 1    
    90   45  122 1    
    91   46  123 1    
    92   46  124 1    
    93   46  125 1    
    94   47   48 am   BACKBONE|DICT|INTERRES
    95   47  126 1    
    96   48   49 2    
    97   48   50 1    
    98   50   51 1    
    99   50   52 1    
   100   50  127 1    
   101   51  128 1    
   102   51  129 1    
   103   51  130 1    
   104   52   53 am   BACKBONE|DICT|INTERRES
   105   52  131 1    
   106   53   54 2    
   107   53   55 1    
   108   55   56 1    
   109   55   59 1    
   110   55  132 1    
   111   56   57 1    
   112   56  133 1    
   113   56  134 1    
   114   57   58 1    
   115   58  135 1    
   116   58  136 1    
   117   59   60 am   BACKBONE|DICT|INTERRES
   118   59  137 1    
   119   60   61 2    
   120   60   62 1    
   121   62   63 1    
   122   62   64 1    
   123   62  138 1    
   124   63  139 1    
   125   63  140 1    
   126   63  141 1    
   127   64   65 am   BACKBONE|DICT|INTERRES
   128   64  142 1    
   129   65   66 2    
   130   65   67 1    
   131   67   68 1    
   132   67   69 1    
   133   67  143 1    
   134   68  144 1    
   135   68  145 1    
   136   68  146 1    
   137   69   70 am   BACKBONE|DICT|INTERRES
   138   69  147 1    
   139   70   71 2    
   140   70   72 1    
   141   72   73 1    
   142   72   74 1    
   143   72  148 1    
   144   73  149 1    
   145   73  150 1    
   146   73  151 1    
   147   74   75 am   BACKBONE|DICT|INTERRES
   148   74  152 1    
   149   75   76 2    
   150   75   77 1    
   151   77   78 1    
   152   77   79 1    
   153   77  153 1    
   154   78  154 1    
   155   78  155 1    
   156   78  156 1    
   157   79   80 am   BACKBONE|DICT|INTERRES
   158   79  157 1    
   159   80   81 2    
@<TRIPOS>SUBSTRUCTURE
     1 UNK         1 GROUP             0       ****    0 ROOT    
