@<TRIPOS>MOLECULE
3R207
157   159    1
SMALL
USER_CHARGES


@<TRIPOS>ATOM
      1 CA        -47.2777  -30.1626    7.8920 C.3       0 UNK        -0.1975 
      2 C         -48.6845  -29.5955    8.0682 C.2       0 UNK         0.4852 
      3 O         -49.1402  -29.4668    9.2016 O.2       0 UNK        -0.5216 
      4 N         -49.4069  -29.2493    6.9922 N.am      1 UNK        -0.4461 
      5 CA        -48.9983  -29.3399    5.5805 C.3       1 UNK         0.0864 
      6 C6        -50.2188  -29.3850    4.6271 C.3       14 UNK        -0.0898 
      7 S7        -51.2709  -30.8519    4.8962 S.3       14 UNK        -0.2598 
      8 C8        -52.9138  -30.1069    5.1448 C.3       14 UNK         0.0286 
      9 C9        -53.0919  -29.5907    6.5643 C.ar      14 UNK        -0.0844 
     10 C10       -52.8252  -28.2532    6.8733 C.ar      14 UNK        -0.0881 
     11 C11       -52.9862  -27.7831    8.1799 C.ar      14 UNK        -0.0643 
     12 C12       -53.4437  -28.6521    9.1739 C.ar      14 UNK        -0.0930 
     13 C13       -53.7347  -29.9846    8.8721 C.ar      14 UNK        -0.0827 
     14 C14       -53.5456  -30.4521    7.5684 C.ar      14 UNK        -0.1249 
     15 C15       -54.2669  -30.9099    9.9540 C.3       14 UNK         0.0141 
     16 S16       -56.0746  -31.0687    9.8269 S.3       14 UNK        -0.2313 
     17 C17       -56.5047  -31.7216   11.4744 C.3       14 UNK        -0.0915 
     18 CA        -57.5045  -30.7998   12.2201 C.3       13 UNK         0.0968 
     19 C         -57.9526  -31.4431   13.5580 C.2       13 UNK         0.5732 
     20 N         -59.1544  -32.0006   13.6136 N.am      13 UNK        -0.7310 
     21 O         -57.1988  -31.4808   14.5286 O.2       13 UNK        -0.5035 
     22 N         -56.9533  -29.4560   12.4409 N.am      13 UNK        -0.4233 
     23 C         -57.6907  -28.3632   12.6744 C.2       13 UNK         0.4989 
     24 O         -58.9232  -28.3495   12.6437 O.2       13 UNK        -0.4996 
     25 CA        -56.9071  -27.0726   12.9973 C.3       12 UNK         0.0216 
     26 CB        -57.8195  -25.9014   13.4217 C.3       12 UNK        -0.1964 
     27 N         -55.8443  -27.2864   13.9903 N.am      12 UNK        -0.4276 
     28 C         -55.9843  -27.7730   15.2345 C.2       12 UNK         0.5020 
     29 O         -57.0620  -28.0708   15.7506 O.2       12 UNK        -0.5489 
     30 CA        -54.6913  -27.9714   16.0401 C.3       11 UNK         0.0294 
     31 CB        -54.0837  -29.3534   15.7456 C.3       11 UNK        -0.2019 
     32 N         -53.6850  -26.9365   15.7888 N.am      11 UNK        -0.4493 
     33 C         -53.7417  -25.6834   16.2638 C.2       11 UNK         0.4932 
     34 O         -54.7002  -25.2454   16.9020 O.2       11 UNK        -0.5029 
     35 CA        -52.5281  -24.7663   15.9866 C.3       10 UNK         0.0280 
     36 CB        -52.2960  -23.7389   17.1141 C.3       10 UNK        -0.1976 
     37 N         -51.2793  -25.4795   15.6799 N.am      10 UNK        -0.4242 
     38 C         -50.6317  -26.3658   16.4547 C.2       10 UNK         0.5072 
     39 O         -51.0041  -26.7119   17.5764 O.2       10 UNK        -0.5224 
     40 CA        -49.3629  -26.9946   15.8602 C.3       9 UNK         0.0343 
     41 CB        -49.7179  -27.9775   14.7312 C.3       9 UNK        -0.2003 
     42 N         -48.4189  -25.9916   15.3675 N.am      9 UNK        -0.4272 
     43 C         -47.7135  -25.1660   16.1541 C.2       9 UNK         0.4988 
     44 O         -47.7586  -25.1823   17.3849 O.2       9 UNK        -0.5108 
     45 CA        -46.7930  -24.1531   15.4538 C.3       8 UNK         0.0248 
     46 CB        -45.4822  -24.8250   15.0140 C.3       8 UNK        -0.2001 
     47 N         -47.4306  -23.5011   14.3074 N.am      8 UNK        -0.4140 
     48 C         -48.4656  -22.6529   14.4016 C.2       8 UNK         0.5028 
     49 O         -48.9592  -22.2879   15.4693 O.2       8 UNK        -0.5428 
     50 CA        -49.0613  -22.1224   13.0865 C.3       7 UNK         0.0264 
     51 CB        -48.2435  -20.9303   12.5644 C.3       7 UNK        -0.1988 
     52 N         -49.1690  -23.1436   12.0413 N.am      7 UNK        -0.4454 
     53 C         -49.9430  -24.2371   12.1233 C.2       7 UNK         0.5027 
     54 O         -50.6684  -24.4952   13.0849 O.2       7 UNK        -0.5083 
     55 CA        -49.8641  -25.2408   10.9574 C.3       6 UNK         0.0844 
     56 C56       -50.6705  -24.7387    9.7346 C.3       14 UNK        -0.0967 
     57 S57       -50.8718  -26.0513    8.4836 S.3       14 UNK        -0.2604 
     58 C58       -52.6663  -26.3382    8.5230 C.3       14 UNK         0.0134 
     59 N         -48.4761  -25.5583   10.6145 N.am      6 UNK        -0.4116 
     60 C         -47.5665  -26.0845   11.4461 C.2       5 UNK         0.5034 
     61 O         -47.7998  -26.4185   12.6070 O.2       5 UNK        -0.5045 
     62 CA        -46.1318  -26.1931   10.9110 C.3       5 UNK         0.0224 
     63 CB        -45.9699  -27.4222   10.0022 C.3       5 UNK        -0.1978 
     64 N         -45.7251  -24.9803   10.1967 N.am      5 UNK        -0.4737 
     65 C         -45.5273  -23.7909   10.7830 C.2       4 UNK         0.5027 
     66 O         -45.6348  -23.5991   11.9931 O.2       4 UNK        -0.5211 
     67 CA        -45.1857  -22.6092    9.8610 C.3       4 UNK         0.0297 
     68 CB        -43.6857  -22.5992    9.5273 C.3       4 UNK        -0.1993 
     69 N         -45.9673  -22.6112    8.6224 N.am      4 UNK        -0.4486 
     70 C         -47.2938  -22.4282    8.5669 C.2       3 UNK         0.4961 
     71 O         -48.0015  -22.2151    9.5512 O.2       3 UNK        -0.5105 
     72 CA        -47.9496  -22.5553    7.1809 C.3       3 UNK         0.0299 
     73 CB        -47.8035  -21.2445    6.3916 C.3       3 UNK        -0.1972 
     74 N         -47.4525  -23.6788    6.3746 N.am      3 UNK        -0.4305 
     75 C         -47.4473  -24.9583    6.7714 C.2       2 UNK         0.5006 
     76 O         -47.7454  -25.3290    7.9070 O.2       2 UNK        -0.5106 
     77 CA        -47.0182  -26.0125    5.7528 C.3       2 UNK         0.0296 
     78 CB        -45.5264  -26.3570    5.9242 C.3       2 UNK        -0.2002 
     79 N         -47.8510  -27.1880    5.9886 N.am      2 UNK        -0.4032 
     80 C         -48.0298  -28.2138    5.1489 C.2       1 UNK         0.5000 
     81 O         -47.4621  -28.3004    4.0585 O.2       1 UNK        -0.5238 
     82 H82       -46.6181  -29.4454    7.4056 H         1 UNK         0.0889 
     83 H83       -47.2978  -31.0808    7.3060 H         1 UNK         0.0889 
     84 H84       -46.8419  -30.4029    8.8616 H         1 UNK         0.0889 
     85 H85       -50.3463  -28.9086    7.1466 H         1 UNK         0.3028 
     86 H86       -48.4538  -30.2755    5.4421 H         1 UNK         0.0864 
     87 H87       -49.8915  -29.4246    3.5861 H         1 UNK         0.0720 
     88 H88       -50.8090  -28.4726    4.7177 H         1 UNK         0.0720 
     89 H89       -53.0775  -29.3098    4.4178 H         1 UNK         0.0814 
     90 H90       -53.6730  -30.8620    4.9352 H         1 UNK         0.0814 
     91 H91       -52.4838  -27.5749    6.1035 H         1 UNK         0.1469 
     92 H92       -53.5796  -28.2891   10.1833 H         1 UNK         0.1381 
     93 H93       -53.7659  -31.4846    7.3327 H         1 UNK         0.1206 
     94 H94       -53.8075  -31.8957    9.8666 H         1 UNK         0.0813 
     95 H95       -53.9958  -30.5272   10.9391 H         1 UNK         0.0813 
     96 H96       -55.6011  -31.8729   12.0678 H         1 UNK         0.0638 
     97 H97       -56.9400  -32.7119   11.3281 H         1 UNK         0.0638 
     98 H98       -58.3859  -30.6963   11.5833 H         1 UNK         0.0568 
     99 H99       -59.4515  -32.4374   14.4720 H         1 UNK         0.3450 
    100 H100      -59.7752  -31.9827   12.8194 H         1 UNK         0.3450 
    101 H101      -55.9506  -29.3949   12.5185 H         1 UNK         0.2987 
    102 H102      -56.4111  -26.7809   12.0702 H         1 UNK         0.0766 
    103 H103      -57.2412  -24.9976   13.6134 H         1 UNK         0.0798 
    104 H104      -58.3847  -26.1345   14.3248 H         1 UNK         0.0798 
    105 H105      -58.5411  -25.6638   12.6390 H         1 UNK         0.0798 
    106 H106      -54.9070  -27.0654   13.6851 H         1 UNK         0.3198 
    107 H107      -54.9561  -27.9376   17.0995 H         1 UNK         0.0843 
    108 H108      -53.7627  -29.4462   14.7075 H         1 UNK         0.0831 
    109 H109      -54.8114  -30.1454   15.9315 H         1 UNK         0.0831 
    110 H110      -53.2220  -29.5516   16.3834 H         1 UNK         0.0831 
    111 H111      -52.8555  -27.2126   15.2851 H         1 UNK         0.3133 
    112 H112      -52.7782  -24.2085   15.0831 H         1 UNK         0.0566 
    113 H113      -51.4508  -23.0884   16.8872 H         1 UNK         0.0814 
    114 H114      -53.1680  -23.0982   17.2501 H         1 UNK         0.0814 
    115 H115      -52.0970  -24.2259   18.0692 H         1 UNK         0.0814 
    116 H116      -50.8850  -25.2558   14.7671 H         1 UNK         0.3091 
    117 H117      -48.8691  -27.5606   16.6530 H         1 UNK         0.0702 
    118 H118      -50.4216  -28.7358   15.0770 H         1 UNK         0.0785 
    119 H119      -50.1705  -27.4713   13.8773 H         1 UNK         0.0785 
    120 H120      -48.8308  -28.4996   14.3718 H         1 UNK         0.0785 
    121 H121      -48.2747  -25.9560   14.3605 H         1 UNK         0.2998 
    122 H122      -46.5440  -23.3764   16.1800 H         1 UNK         0.0697 
    123 H123      -45.6536  -25.5862   14.2523 H         1 UNK         0.0825 
    124 H124      -44.9891  -25.3106   15.8572 H         1 UNK         0.0825 
    125 H125      -44.7818  -24.0963   14.6055 H         1 UNK         0.0825 
    126 H126      -47.0306  -23.6917   13.3928 H         1 UNK         0.3029 
    127 H127      -50.0717  -21.7704   13.3056 H         1 UNK         0.0897 
    128 H128      -48.7127  -20.4816   11.6886 H         1 UNK         0.0792 
    129 H129      -47.2316  -21.2268   12.2855 H         1 UNK         0.0792 
    130 H130      -48.1597  -20.1505   13.3226 H         1 UNK         0.0792 
    131 H131      -48.6309  -22.9812   11.1927 H         1 UNK         0.3086 
    132 H132      -50.3232  -26.1677   11.3083 H         1 UNK         0.0583 
    133 H133      -51.6519  -24.3702   10.0387 H         1 UNK         0.1020 
    134 H134      -50.1687  -23.8915    9.2648 H         1 UNK         0.1020 
    135 H135      -53.0635  -26.0939    9.5092 H         1 UNK         0.0694 
    136 H136      -53.1565  -25.6682    7.8152 H         1 UNK         0.0694 
    137 H137      -48.1963  -25.3632    9.6547 H         1 UNK         0.2989 
    138 H138      -45.4685  -26.3167   11.7700 H         1 UNK         0.1055 
    139 H139      -46.2386  -28.3353   10.5353 H         1 UNK         0.0806 
    140 H140      -44.9398  -27.5351    9.6645 H         1 UNK         0.0806 
    141 H141      -46.6086  -27.3649    9.1211 H         1 UNK         0.0806 
    142 H142      -45.6967  -25.0320    9.1887 H         1 UNK         0.3061 
    143 H143      -45.4196  -21.6901   10.4030 H         1 UNK         0.0734 
    144 H144      -43.4141  -21.7188    8.9447 H         1 UNK         0.0832 
    145 H145      -43.0855  -22.5799   10.4383 H         1 UNK         0.0832 
    146 H146      -43.3888  -23.4829    8.9611 H         1 UNK         0.0832 
    147 H147      -45.4709  -22.7885    7.7613 H         1 UNK         0.3156 
    148 H148      -49.0149  -22.7299    7.3447 H         1 UNK         0.0589 
    149 H149      -46.7624  -21.0327    6.1448 H         1 UNK         0.0808 
    150 H150      -48.3701  -21.2757    5.4608 H         1 UNK         0.0808 
    151 H151      -48.1802  -20.3982    6.9681 H         1 UNK         0.0808 
    152 H152      -47.1706  -23.4643    5.4286 H         1 UNK         0.3098 
    153 H153      -47.2028  -25.6380    4.7439 H         1 UNK         0.0720 
    154 H154      -45.3166  -26.7574    6.9168 H         1 UNK         0.0791 
    155 H155      -44.9020  -25.4732    5.7882 H         1 UNK         0.0791 
    156 H156      -45.2004  -27.0957    5.1921 H         1 UNK         0.0791 
    157 H157      -48.3700  -27.1570    6.8591 H         1 UNK         0.3028 
@<TRIPOS>BOND
     1    1    2 1    
     2    1   82 1    
     3    1   83 1    
     4    1   84 1    
     5    2    3 2    
     6    2    4 am   BACKBONE|DICT|INTERRES
     7    4    5 1    
     8    4   85 1    
     9    5    6 1    
    10    5   80 1    
    11    5   86 1    
    12    6    7 1    
    13    6   87 1    
    14    6   88 1    
    15    7    8 1    
    16    8    9 1    
    17    8   89 1    
    18    8   90 1    
    19    9   10 ar   
    20    9   14 ar   
    21   10   11 ar   
    22   10   91 1    
    23   11   12 ar   
    24   11   58 1    
    25   12   13 ar   
    26   12   92 1    
    27   13   14 ar   
    28   13   15 1    
    29   14   93 1    
    30   15   16 1    
    31   15   94 1    
    32   15   95 1    
    33   16   17 1    
    34   17   18 1    
    35   17   96 1    
    36   17   97 1    
    37   18   19 1    
    38   18   22 1    
    39   18   98 1    
    40   19   20 am   BACKBONE|DICT|INTERRES
    41   19   21 2    
    42   20   99 1    
    43   20  100 1    
    44   22   23 am   BACKBONE|DICT|INTERRES
    45   22  101 1    
    46   23   24 2    
    47   23   25 1    
    48   25   26 1    
    49   25   27 1    
    50   25  102 1    
    51   26  103 1    
    52   26  104 1    
    53   26  105 1    
    54   27   28 am   BACKBONE|DICT|INTERRES
    55   27  106 1    
    56   28   29 2    
    57   28   30 1    
    58   30   31 1    
    59   30   32 1    
    60   30  107 1    
    61   31  108 1    
    62   31  109 1    
    63   31  110 1    
    64   32   33 am   BACKBONE|DICT|INTERRES
    65   32  111 1    
    66   33   34 2    
    67   33   35 1    
    68   35   36 1    
    69   35   37 1    
    70   35  112 1    
    71   36  113 1    
    72   36  114 1    
    73   36  115 1    
    74   37   38 am   BACKBONE|DICT|INTERRES
    75   37  116 1    
    76   38   39 2    
    77   38   40 1    
    78   40   41 1    
    79   40   42 1    
    80   40  117 1    
    81   41  118 1    
    82   41  119 1    
    83   41  120 1    
    84   42   43 am   BACKBONE|DICT|INTERRES
    85   42  121 1    
    86   43   44 2    
    87   43   45 1    
    88   45   46 1    
    89   45   47 1    
    90   45  122 1    
    91   46  123 1    
    92   46  124 1    
    93   46  125 1    
    94   47   48 am   BACKBONE|DICT|INTERRES
    95   47  126 1    
    96   48   49 2    
    97   48   50 1    
    98   50   51 1    
    99   50   52 1    
   100   50  127 1    
   101   51  128 1    
   102   51  129 1    
   103   51  130 1    
   104   52   53 am   BACKBONE|DICT|INTERRES
   105   52  131 1    
   106   53   54 2    
   107   53   55 1    
   108   55   56 1    
   109   55   59 1    
   110   55  132 1    
   111   56   57 1    
   112   56  133 1    
   113   56  134 1    
   114   57   58 1    
   115   58  135 1    
   116   58  136 1    
   117   59   60 am   BACKBONE|DICT|INTERRES
   118   59  137 1    
   119   60   61 2    
   120   60   62 1    
   121   62   63 1    
   122   62   64 1    
   123   62  138 1    
   124   63  139 1    
   125   63  140 1    
   126   63  141 1    
   127   64   65 am   BACKBONE|DICT|INTERRES
   128   64  142 1    
   129   65   66 2    
   130   65   67 1    
   131   67   68 1    
   132   67   69 1    
   133   67  143 1    
   134   68  144 1    
   135   68  145 1    
   136   68  146 1    
   137   69   70 am   BACKBONE|DICT|INTERRES
   138   69  147 1    
   139   70   71 2    
   140   70   72 1    
   141   72   73 1    
   142   72   74 1    
   143   72  148 1    
   144   73  149 1    
   145   73  150 1    
   146   73  151 1    
   147   74   75 am   BACKBONE|DICT|INTERRES
   148   74  152 1    
   149   75   76 2    
   150   75   77 1    
   151   77   78 1    
   152   77   79 1    
   153   77  153 1    
   154   78  154 1    
   155   78  155 1    
   156   78  156 1    
   157   79   80 am   BACKBONE|DICT|INTERRES
   158   79  157 1    
   159   80   81 2    
@<TRIPOS>SUBSTRUCTURE
     1 UNK         1 GROUP             0       ****    0 ROOT    
