@<TRIPOS>MOLECULE
3R207
157   159    1
SMALL
USER_CHARGES


@<TRIPOS>ATOM
      1 CA        -49.6586  -30.9967    9.8641 C.3       0 UNK        -0.1975 
      2 C         -49.5599  -29.8901    8.8275 C.2       0 UNK         0.4852 
      3 O         -49.5139  -28.7155    9.1896 O.2       0 UNK        -0.5216 
      4 N         -49.4895  -30.2677    7.5431 N.am      1 UNK        -0.4461 
      5 CA        -49.4467  -29.4036    6.3497 C.3       1 UNK         0.0864 
      6 C6        -50.7258  -28.5397    6.1700 C.3       14 UNK        -0.0898 
      7 S7        -52.1954  -29.5901    5.8975 S.3       14 UNK        -0.2598 
      8 C8        -53.4135  -28.3842    5.2838 C.3       14 UNK         0.0286 
      9 C9        -54.0334  -27.5983    6.4279 C.ar      14 UNK        -0.0844 
     10 C10       -53.4687  -26.3893    6.8383 C.ar      14 UNK        -0.0881 
     11 C11       -54.0029  -25.6941    7.9253 C.ar      14 UNK        -0.0643 
     12 C12       -55.1304  -26.1985    8.5799 C.ar      14 UNK        -0.0930 
     13 C13       -55.7204  -27.4034    8.1719 C.ar      14 UNK        -0.0827 
     14 C14       -55.1596  -28.0939    7.0925 C.ar      14 UNK        -0.1249 
     15 C15       -56.9255  -28.0285    8.8814 C.3       14 UNK         0.0141 
     16 S16       -57.6729  -27.0219   10.2107 S.3       14 UNK        -0.2313 
     17 C17       -58.4893  -28.2974   11.2260 C.3       14 UNK        -0.0915 
     18 CA        -57.6665  -28.6398   12.4996 C.3       13 UNK         0.0968 
     19 C         -58.4992  -29.4719   13.5182 C.2       13 UNK         0.5732 
     20 N         -58.0050  -30.5938   14.0295 N.am      13 UNK        -0.7310 
     21 O         -59.6111  -29.0841   13.8696 O.2       13 UNK        -0.5035 
     22 N         -56.3769  -29.2659   12.1548 N.am      13 UNK        -0.4233 
     23 C         -55.1809  -28.8670   12.6007 C.2       13 UNK         0.4989 
     24 O         -55.0004  -27.9018   13.3470 O.2       13 UNK        -0.4996 
     25 CA        -53.9810  -29.6951   12.1234 C.3       12 UNK         0.0216 
     26 CB        -53.7286  -29.5170   10.6131 C.3       12 UNK        -0.1964 
     27 N         -52.7912  -29.3015   12.8760 N.am      12 UNK        -0.4276 
     28 C         -51.7837  -30.1200   13.1999 C.2       12 UNK         0.5020 
     29 O         -51.7444  -31.3062   12.8697 O.2       12 UNK        -0.5489 
     30 CA        -50.6069  -29.5466   14.0129 C.3       11 UNK         0.0294 
     31 CB        -49.3344  -29.4875   13.1515 C.3       11 UNK        -0.2019 
     32 N         -50.8384  -28.2287   14.6123 N.am      11 UNK        -0.4493 
     33 C         -51.6470  -28.0008   15.6587 C.2       11 UNK         0.4932 
     34 O         -52.3952  -28.8548   16.1366 O.2       11 UNK        -0.5029 
     35 CA        -51.5729  -26.5962   16.2954 C.3       10 UNK         0.0280 
     36 CB        -52.1869  -26.5425   17.7103 C.3       10 UNK        -0.1976 
     37 N         -50.2098  -26.0489   16.2971 N.am      10 UNK        -0.4242 
     38 C         -49.1147  -26.5834   16.8646 C.2       10 UNK         0.5072 
     39 O         -49.1285  -27.5968   17.5648 O.2       10 UNK        -0.5224 
     40 CA        -47.7668  -25.8915   16.5923 C.3       9 UNK         0.0343 
     41 CB        -46.7701  -26.8682   15.9410 C.3       9 UNK        -0.2003 
     42 N         -47.9164  -24.7229   15.7204 N.am      9 UNK        -0.4272 
     43 C         -47.7416  -23.4537   16.1097 C.2       9 UNK         0.4988 
     44 O         -47.4008  -23.1211   17.2456 O.2       9 UNK        -0.5108 
     45 CA        -47.9894  -22.3619   15.0576 C.3       8 UNK         0.0248 
     46 CB        -46.7264  -22.1319   14.2112 C.3       8 UNK        -0.2001 
     47 N         -49.1268  -22.6288   14.1732 N.am      8 UNK        -0.4140 
     48 C         -50.4127  -22.6466   14.5533 C.2       8 UNK         0.5028 
     49 O         -50.7826  -22.5604   15.7238 O.2       8 UNK        -0.5428 
     50 CA        -51.4642  -22.7827   13.4435 C.3       7 UNK         0.0264 
     51 CB        -51.6030  -21.4641   12.6643 C.3       7 UNK        -0.1988 
     52 N         -51.1083  -23.8534   12.5157 N.am      7 UNK        -0.4454 
     53 C         -51.6967  -25.0564   12.4740 C.2       7 UNK         0.5027 
     54 O         -52.6476  -25.3791   13.1845 O.2       7 UNK        -0.5083 
     55 CA        -51.1175  -26.1010   11.4953 C.3       6 UNK         0.0844 
     56 C56       -51.9300  -26.1605   10.1846 C.3       14 UNK        -0.0967 
     57 S57       -51.6501  -24.7454    9.0590 S.3       14 UNK        -0.2604 
     58 C58       -53.3310  -24.4242    8.4308 C.3       14 UNK         0.0134 
     59 N         -49.6857  -25.9467   11.2421 N.am      6 UNK        -0.4116 
     60 C         -48.7261  -25.9749   12.1724 C.2       5 UNK         0.5034 
     61 O         -48.9361  -26.1870   13.3682 O.2       5 UNK        -0.5045 
     62 CA        -47.2989  -25.6571   11.6996 C.3       5 UNK         0.0224 
     63 CB        -46.5924  -26.9577   11.2928 C.3       5 UNK        -0.1978 
     64 N         -47.2062  -24.6727   10.6058 N.am      5 UNK        -0.4737 
     65 C         -47.7555  -23.4451   10.6159 C.2       4 UNK         0.5027 
     66 O         -48.4953  -23.0440   11.5144 O.2       4 UNK        -0.5211 
     67 CA        -47.4300  -22.4744    9.4687 C.3       4 UNK         0.0297 
     68 CB        -46.5353  -21.3344    9.9827 C.3       4 UNK        -0.1993 
     69 N         -46.7842  -23.1015    8.3166 N.am      4 UNK        -0.4486 
     70 C         -47.4200  -23.8058    7.3728 C.2       3 UNK         0.4961 
     71 O         -48.6307  -24.0224    7.3769 O.2       3 UNK        -0.5105 
     72 CA        -46.5663  -24.3686    6.2219 C.3       3 UNK         0.0299 
     73 CB        -45.1774  -23.7039    6.0769 C.3       3 UNK        -0.1972 
     74 N         -46.4329  -25.8236    6.3164 N.am      3 UNK        -0.4305 
     75 C         -45.9298  -26.5307    7.3366 C.2       2 UNK         0.5006 
     76 O         -45.5175  -26.0292    8.3849 O.2       2 UNK        -0.5106 
     77 CA        -45.8854  -28.0572    7.1367 C.3       2 UNK         0.0296 
     78 CB        -45.0018  -28.7666    8.1802 C.3       2 UNK        -0.2002 
     79 N         -47.2179  -28.6634    7.1538 N.am      2 UNK        -0.4032 
     80 C         -48.1435  -28.5823    6.1869 C.2       1 UNK         0.5000 
     81 O         -47.9706  -27.9347    5.1511 O.2       1 UNK        -0.5238 
     82 H82       -49.8068  -31.9746    9.4067 H         1 UNK         0.0889 
     83 H83       -50.4981  -30.8079   10.5301 H         1 UNK         0.0889 
     84 H84       -48.7476  -31.0337   10.4600 H         1 UNK         0.0889 
     85 H85       -49.5074  -31.2567    7.3347 H         1 UNK         0.3028 
     86 H86       -49.4156  -30.0977    5.5081 H         1 UNK         0.0864 
     87 H87       -50.8935  -27.8978    7.0364 H         1 UNK         0.0720 
     88 H88       -50.6266  -27.8755    5.3096 H         1 UNK         0.0720 
     89 H89       -54.1943  -28.9194    4.7413 H         1 UNK         0.0814 
     90 H90       -52.9482  -27.7136    4.5597 H         1 UNK         0.0814 
     91 H91       -52.5877  -26.0070    6.3408 H         1 UNK         0.1469 
     92 H92       -55.5212  -25.6528    9.4259 H         1 UNK         0.1381 
     93 H93       -55.5900  -29.0355    6.7787 H         1 UNK         0.1206 
     94 H94       -56.6113  -28.9860    9.2959 H         1 UNK         0.0813 
     95 H95       -57.6997  -28.2507    8.1456 H         1 UNK         0.0813 
     96 H96       -58.6782  -29.1911   10.6288 H         1 UNK         0.0638 
     97 H97       -59.4699  -27.9007   11.4948 H         1 UNK         0.0638 
     98 H98       -57.4773  -27.6975   13.0168 H         1 UNK         0.0568 
     99 H99       -58.5565  -31.1147   14.6931 H         1 UNK         0.3450 
    100 H100      -57.0854  -30.9160   13.7766 H         1 UNK         0.3450 
    101 H101      -56.4337  -30.0817   11.5635 H         1 UNK         0.2987 
    102 H102      -54.2032  -30.7445   12.3295 H         1 UNK         0.0766 
    103 H103      -52.7984  -29.9903   10.3000 H         1 UNK         0.0798 
    104 H104      -53.6795  -28.4666   10.3310 H         1 UNK         0.0798 
    105 H105      -54.5262  -29.9704   10.0250 H         1 UNK         0.0798 
    106 H106      -52.8258  -28.3687   13.2698 H         1 UNK         0.3198 
    107 H107      -50.4207  -30.2455   14.8314 H         1 UNK         0.0843 
    108 H108      -48.4925  -29.0725   13.7059 H         1 UNK         0.0831 
    109 H109      -49.4794  -28.8857   12.2538 H         1 UNK         0.0831 
    110 H110      -49.0422  -30.4871   12.8290 H         1 UNK         0.0831 
    111 H111      -50.2401  -27.4744   14.2900 H         1 UNK         0.3133 
    112 H112      -52.1663  -25.9375   15.6623 H         1 UNK         0.0566 
    113 H113      -52.1296  -25.5379   18.1293 H         1 UNK         0.0814 
    114 H114      -53.2405  -26.8238   17.6894 H         1 UNK         0.0814 
    115 H115      -51.6831  -27.2228   18.3977 H         1 UNK         0.0814 
    116 H116      -50.0828  -25.1993   15.7666 H         1 UNK         0.3091 
    117 H117      -47.3635  -25.5982   17.5635 H         1 UNK         0.0702 
    118 H118      -46.5838  -27.7269   16.5873 H         1 UNK         0.0785 
    119 H119      -45.8086  -26.3884   15.7581 H         1 UNK         0.0785 
    120 H120      -47.1386  -27.2526   14.9899 H         1 UNK         0.0785 
    121 H121      -48.2028  -24.9205   14.7674 H         1 UNK         0.2998 
    122 H122      -48.2059  -21.4360   15.5948 H         1 UNK         0.0697 
    123 H123      -46.4625  -23.0144   13.6279 H         1 UNK         0.0825 
    124 H124      -45.8706  -21.8908   14.8433 H         1 UNK         0.0825 
    125 H125      -46.8598  -21.3018   13.5172 H         1 UNK         0.0825 
    126 H126      -48.9105  -22.7214   13.1807 H         1 UNK         0.3029 
    127 H127      -52.4245  -22.9934   13.9196 H         1 UNK         0.0897 
    128 H128      -52.3928  -21.5315   11.9158 H         1 UNK         0.0792 
    129 H129      -51.8587  -20.6404   13.3322 H         1 UNK         0.0792 
    130 H130      -50.6796  -21.1946   12.1497 H         1 UNK         0.0792 
    131 H131      -50.3046  -23.6840   11.9177 H         1 UNK         0.3086 
    132 H132      -51.2339  -27.0694   11.9829 H         1 UNK         0.0583 
    133 H133      -51.6771  -27.0709    9.6382 H         1 UNK         0.1020 
    134 H134      -52.9921  -26.2438   10.4188 H         1 UNK         0.1020 
    135 H135      -53.9190  -23.9601    9.2241 H         1 UNK         0.0694 
    136 H136      -53.2756  -23.6963    7.6204 H         1 UNK         0.0694 
    137 H137      -49.4247  -25.7532   10.2853 H         1 UNK         0.2989 
    138 H138      -46.7673  -25.2367   12.5550 H         1 UNK         0.1055 
    139 H139      -46.6189  -27.6896   12.1016 H         1 UNK         0.0806 
    140 H140      -45.5441  -26.7827   11.0503 H         1 UNK         0.0806 
    141 H141      -47.0693  -27.4139   10.4241 H         1 UNK         0.0806 
    142 H142      -46.6226  -24.9335    9.8166 H         1 UNK         0.3061 
    143 H143      -48.3768  -22.0395    9.1409 H         1 UNK         0.0734 
    144 H144      -46.3481  -20.5939    9.2049 H         1 UNK         0.0832 
    145 H145      -47.0081  -20.8116   10.8156 H         1 UNK         0.0832 
    146 H146      -45.5720  -21.7039   10.3365 H         1 UNK         0.0832 
    147 H147      -45.7807  -23.0102    8.2481 H         1 UNK         0.3156 
    148 H148      -47.1219  -24.1688    5.3044 H         1 UNK         0.0589 
    149 H149      -44.5224  -23.9124    6.9235 H         1 UNK         0.0808 
    150 H150      -44.6701  -24.0592    5.1798 H         1 UNK         0.0808 
    151 H151      -45.2664  -22.6207    5.9818 H         1 UNK         0.0808 
    152 H152      -46.8517  -26.3584    5.5601 H         1 UNK         0.3098 
    153 H153      -45.4400  -28.2391    6.1562 H         1 UNK         0.0720 
    154 H154      -44.8946  -29.8272    7.9525 H         1 UNK         0.0791 
    155 H155      -45.4103  -28.6809    9.1869 H         1 UNK         0.0791 
    156 H156      -43.9987  -28.3382    8.1984 H         1 UNK         0.0791 
    157 H157      -47.4762  -29.1619    7.9930 H         1 UNK         0.3028 
@<TRIPOS>BOND
     1    1    2 1    
     2    1   82 1    
     3    1   83 1    
     4    1   84 1    
     5    2    3 2    
     6    2    4 am   BACKBONE|DICT|INTERRES
     7    4    5 1    
     8    4   85 1    
     9    5    6 1    
    10    5   80 1    
    11    5   86 1    
    12    6    7 1    
    13    6   87 1    
    14    6   88 1    
    15    7    8 1    
    16    8    9 1    
    17    8   89 1    
    18    8   90 1    
    19    9   10 ar   
    20    9   14 ar   
    21   10   11 ar   
    22   10   91 1    
    23   11   12 ar   
    24   11   58 1    
    25   12   13 ar   
    26   12   92 1    
    27   13   14 ar   
    28   13   15 1    
    29   14   93 1    
    30   15   16 1    
    31   15   94 1    
    32   15   95 1    
    33   16   17 1    
    34   17   18 1    
    35   17   96 1    
    36   17   97 1    
    37   18   19 1    
    38   18   22 1    
    39   18   98 1    
    40   19   20 am   BACKBONE|DICT|INTERRES
    41   19   21 2    
    42   20   99 1    
    43   20  100 1    
    44   22   23 am   BACKBONE|DICT|INTERRES
    45   22  101 1    
    46   23   24 2    
    47   23   25 1    
    48   25   26 1    
    49   25   27 1    
    50   25  102 1    
    51   26  103 1    
    52   26  104 1    
    53   26  105 1    
    54   27   28 am   BACKBONE|DICT|INTERRES
    55   27  106 1    
    56   28   29 2    
    57   28   30 1    
    58   30   31 1    
    59   30   32 1    
    60   30  107 1    
    61   31  108 1    
    62   31  109 1    
    63   31  110 1    
    64   32   33 am   BACKBONE|DICT|INTERRES
    65   32  111 1    
    66   33   34 2    
    67   33   35 1    
    68   35   36 1    
    69   35   37 1    
    70   35  112 1    
    71   36  113 1    
    72   36  114 1    
    73   36  115 1    
    74   37   38 am   BACKBONE|DICT|INTERRES
    75   37  116 1    
    76   38   39 2    
    77   38   40 1    
    78   40   41 1    
    79   40   42 1    
    80   40  117 1    
    81   41  118 1    
    82   41  119 1    
    83   41  120 1    
    84   42   43 am   BACKBONE|DICT|INTERRES
    85   42  121 1    
    86   43   44 2    
    87   43   45 1    
    88   45   46 1    
    89   45   47 1    
    90   45  122 1    
    91   46  123 1    
    92   46  124 1    
    93   46  125 1    
    94   47   48 am   BACKBONE|DICT|INTERRES
    95   47  126 1    
    96   48   49 2    
    97   48   50 1    
    98   50   51 1    
    99   50   52 1    
   100   50  127 1    
   101   51  128 1    
   102   51  129 1    
   103   51  130 1    
   104   52   53 am   BACKBONE|DICT|INTERRES
   105   52  131 1    
   106   53   54 2    
   107   53   55 1    
   108   55   56 1    
   109   55   59 1    
   110   55  132 1    
   111   56   57 1    
   112   56  133 1    
   113   56  134 1    
   114   57   58 1    
   115   58  135 1    
   116   58  136 1    
   117   59   60 am   BACKBONE|DICT|INTERRES
   118   59  137 1    
   119   60   61 2    
   120   60   62 1    
   121   62   63 1    
   122   62   64 1    
   123   62  138 1    
   124   63  139 1    
   125   63  140 1    
   126   63  141 1    
   127   64   65 am   BACKBONE|DICT|INTERRES
   128   64  142 1    
   129   65   66 2    
   130   65   67 1    
   131   67   68 1    
   132   67   69 1    
   133   67  143 1    
   134   68  144 1    
   135   68  145 1    
   136   68  146 1    
   137   69   70 am   BACKBONE|DICT|INTERRES
   138   69  147 1    
   139   70   71 2    
   140   70   72 1    
   141   72   73 1    
   142   72   74 1    
   143   72  148 1    
   144   73  149 1    
   145   73  150 1    
   146   73  151 1    
   147   74   75 am   BACKBONE|DICT|INTERRES
   148   74  152 1    
   149   75   76 2    
   150   75   77 1    
   151   77   78 1    
   152   77   79 1    
   153   77  153 1    
   154   78  154 1    
   155   78  155 1    
   156   78  156 1    
   157   79   80 am   BACKBONE|DICT|INTERRES
   158   79  157 1    
   159   80   81 2    
@<TRIPOS>SUBSTRUCTURE
     1 UNK         1 GROUP             0       ****    0 ROOT    
