@<TRIPOS>MOLECULE
3R207
157   159    1
SMALL
USER_CHARGES


@<TRIPOS>ATOM
      1 CA        -50.8259  -31.8770    4.8425 C.3       0 UNK        -0.1975 
      2 C         -51.1536  -30.5885    4.1036 C.2       0 UNK         0.4852 
      3 O         -50.4496  -30.2224    3.1628 O.2       0 UNK        -0.5216 
      4 N         -52.2094  -29.8880    4.5335 N.am      1 UNK        -0.4461 
      5 CA        -52.7020  -28.6160    3.9841 C.3       1 UNK         0.0864 
      6 C6        -54.2543  -28.4711    4.1095 C.3       14 UNK        -0.0898 
      7 S7        -55.0459  -29.3298    5.5200 S.3       14 UNK        -0.2598 
      8 C8        -55.1809  -28.0199    6.7827 C.3       14 UNK         0.0286 
      9 C9        -53.8457  -27.6709    7.4297 C.ar      14 UNK        -0.0844 
     10 C10       -53.4854  -26.3348    7.6136 C.ar      14 UNK        -0.0881 
     11 C11       -52.2640  -25.9957    8.2014 C.ar      14 UNK        -0.0643 
     12 C12       -51.3983  -27.0208    8.6089 C.ar      14 UNK        -0.0930 
     13 C13       -51.7414  -28.3666    8.4390 C.ar      14 UNK        -0.0827 
     14 C14       -52.9755  -28.6771    7.8562 C.ar      14 UNK        -0.1249 
     15 C15       -50.7302  -29.4377    8.8576 C.3       14 UNK         0.0141 
     16 S16       -51.2799  -31.1741    8.6974 S.3       14 UNK        -0.2313 
     17 C17       -51.7484  -31.6220   10.4024 C.3       14 UNK        -0.0915 
     18 CA        -53.2259  -31.2871   10.7425 C.3       13 UNK         0.0968 
     19 C         -53.7531  -32.1789   11.9063 C.2       13 UNK         0.5732 
     20 N         -54.1237  -31.6324   13.0587 N.am      13 UNK        -0.7310 
     21 O         -53.8376  -33.3953   11.7549 O.2       13 UNK        -0.5035 
     22 N         -53.3897  -29.8453   10.9694 N.am      13 UNK        -0.4233 
     23 C         -54.5363  -29.1627   10.9001 C.2       13 UNK         0.4989 
     24 O         -55.6209  -29.6610   10.5945 O.2       13 UNK        -0.4996 
     25 CA        -54.4408  -27.6744   11.2872 C.3       12 UNK         0.0216 
     26 CB        -55.6977  -26.8738   10.9019 C.3       12 UNK        -0.1964 
     27 N         -54.1885  -27.5194   12.7243 N.am      12 UNK        -0.4276 
     28 C         -53.0168  -27.7557   13.3271 C.2       12 UNK         0.5020 
     29 O         -51.9806  -28.0270   12.7169 O.2       12 UNK        -0.5489 
     30 CA        -53.0100  -27.6991   14.8591 C.3       11 UNK         0.0294 
     31 CB        -52.0390  -28.7267   15.4662 C.3       11 UNK        -0.2019 
     32 N         -52.6145  -26.3677   15.3002 N.am      11 UNK        -0.4493 
     33 C         -53.4586  -25.3933   15.6636 C.2       11 UNK         0.4932 
     34 O         -54.6844  -25.5031   15.6062 O.2       11 UNK        -0.5029 
     35 CA        -52.8258  -24.0793   16.1727 C.3       10 UNK         0.0280 
     36 CB        -53.7513  -23.2984   17.1300 C.3       10 UNK        -0.1976 
     37 N         -51.4903  -24.2722   16.7576 N.am      10 UNK        -0.4242 
     38 C         -51.1786  -25.0053   17.8388 C.2       10 UNK         0.5072 
     39 O         -52.0144  -25.5237   18.5804 O.2       10 UNK        -0.5224 
     40 CA        -49.6876  -25.2412   18.1325 C.3       9 UNK         0.0343 
     41 CB        -49.3601  -26.7445   18.0644 C.3       9 UNK        -0.2003 
     42 N         -48.7993  -24.5352   17.2019 N.am      9 UNK        -0.4272 
     43 C         -47.8855  -23.6267   17.5686 C.2       9 UNK         0.4988 
     44 O         -47.7480  -23.2130   18.7207 O.2       9 UNK        -0.5108 
     45 CA        -46.9377  -23.1092   16.4757 C.3       8 UNK         0.0248 
     46 CB        -45.8316  -24.1394   16.1913 C.3       8 UNK        -0.2001 
     47 N         -47.6078  -22.7632   15.2224 N.am      8 UNK        -0.4140 
     48 C         -48.4055  -21.7008   15.0442 C.2       8 UNK         0.5028 
     49 O         -48.7413  -20.9332   15.9462 O.2       8 UNK        -0.5428 
     50 CA        -48.9084  -21.4497   13.6151 C.3       7 UNK         0.0264 
     51 CB        -47.7913  -20.8611   12.7364 C.3       7 UNK        -0.1988 
     52 N         -49.3986  -22.6916   13.0181 N.am      7 UNK        -0.4454 
     53 C         -50.6917  -23.0370   12.9512 C.2       7 UNK         0.5027 
     54 O         -51.6100  -22.2868   13.2829 O.2       7 UNK        -0.5083 
     55 CA        -51.0415  -24.4613   12.4674 C.3       6 UNK         0.0844 
     56 C56       -51.8064  -24.4604   11.1245 C.3       14 UNK        -0.0967 
     57 S57       -50.7607  -24.0931    9.6791 S.3       14 UNK        -0.2604 
     58 C58       -51.9000  -24.5143    8.3198 C.3       14 UNK         0.0134 
     59 N         -49.8962  -25.3754   12.4595 N.am      6 UNK        -0.4116 
     60 C         -49.3522  -25.9189   13.5549 C.2       5 UNK         0.5034 
     61 O         -49.7597  -25.7054   14.6983 O.2       5 UNK        -0.5045 
     62 CA        -48.1171  -26.8123   13.3518 C.3       5 UNK         0.0224 
     63 CB        -48.5461  -28.2575   13.0538 C.3       5 UNK        -0.1978 
     64 N         -47.1962  -26.3643   12.3002 N.am      5 UNK        -0.4737 
     65 C         -46.6138  -25.1590   12.2122 C.2       4 UNK         0.5027 
     66 O         -46.8634  -24.2275   12.9754 O.2       4 UNK        -0.5211 
     67 CA        -45.5834  -24.9549   11.0855 C.3       4 UNK         0.0297 
     68 CB        -44.1583  -25.1206   11.6357 C.3       4 UNK        -0.1993 
     69 N         -45.7846  -25.8742    9.9593 N.am      4 UNK        -0.4486 
     70 C         -46.7926  -25.7590    9.0859 C.2       3 UNK         0.4961 
     71 O         -47.5602  -24.7946    9.0587 O.2       3 UNK        -0.5105 
     72 CA        -47.0123  -26.9318    8.1196 C.3       3 UNK         0.0299 
     73 CB        -47.3176  -28.2253    8.9080 C.3       3 UNK        -0.1972 
     74 N         -48.1203  -26.5604    7.2400 N.am      3 UNK        -0.4305 
     75 C         -48.6310  -27.2497    6.2156 C.2       2 UNK         0.5006 
     76 O         -48.2456  -28.3663    5.8609 O.2       2 UNK        -0.5106 
     77 CA        -49.7496  -26.5560    5.4315 C.3       2 UNK         0.0296 
     78 CB        -49.1670  -25.7224    4.2741 C.3       2 UNK        -0.2002 
     79 N         -50.6610  -27.5759    4.9239 N.am      2 UNK        -0.4032 
     80 C         -51.9055  -27.3768    4.4716 C.2       1 UNK         0.5000 
     81 O         -52.4159  -26.2567    4.3970 O.2       1 UNK        -0.5238 
     82 H82       -50.7819  -32.7115    4.1434 H         1 UNK         0.0889 
     83 H83       -51.5712  -32.1108    5.6028 H         1 UNK         0.0889 
     84 H84       -49.8572  -31.7901    5.3342 H         1 UNK         0.0889 
     85 H85       -52.7481  -30.2302    5.3177 H         1 UNK         0.3028 
     86 H86       -52.4949  -28.6362    2.9118 H         1 UNK         0.0864 
     87 H87       -54.5865  -27.4322    4.0884 H         1 UNK         0.0720 
     88 H88       -54.7023  -28.9123    3.2180 H         1 UNK         0.0720 
     89 H89       -55.8595  -28.3620    7.5653 H         1 UNK         0.0814 
     90 H90       -55.6441  -27.1394    6.3350 H         1 UNK         0.0814 
     91 H91       -54.1519  -25.5516    7.2791 H         1 UNK         0.1469 
     92 H92       -50.4402  -26.7746    9.0435 H         1 UNK         0.1381 
     93 H93       -53.2736  -29.7052    7.7185 H         1 UNK         0.1206 
     94 H94       -49.8575  -29.3265    8.2157 H         1 UNK         0.0813 
     95 H95       -50.3951  -29.2481    9.8780 H         1 UNK         0.0813 
     96 H96       -51.0655  -31.1564   11.1152 H         1 UNK         0.0638 
     97 H97       -51.5672  -32.6956   10.4818 H         1 UNK         0.0638 
     98 H98       -53.8386  -31.5534    9.8792 H         1 UNK         0.0568 
     99 H99       -54.0752  -30.6370   13.1887 H         1 UNK         0.3450 
    100 H100      -54.4678  -32.2264   13.7964 H         1 UNK         0.3450 
    101 H101      -52.5732  -29.3461   11.3066 H         1 UNK         0.2987 
    102 H102      -53.6016  -27.2561   10.7296 H         1 UNK         0.0766 
    103 H103      -56.5830  -27.2247   11.4336 H         1 UNK         0.0798 
    104 H104      -55.5724  -25.8128   11.1185 H         1 UNK         0.0798 
    105 H105      -55.9008  -26.9622    9.8339 H         1 UNK         0.0798 
    106 H106      -54.9878  -27.2904   13.2995 H         1 UNK         0.3198 
    107 H107      -54.0116  -27.9400   15.2226 H         1 UNK         0.0843 
    108 H108      -52.2519  -29.7330   15.1030 H         1 UNK         0.0831 
    109 H109      -52.1197  -28.7487   16.5531 H         1 UNK         0.0831 
    110 H110      -51.0030  -28.5005   15.2176 H         1 UNK         0.0831 
    111 H111      -51.6179  -26.1730   15.2966 H         1 UNK         0.3133 
    112 H112      -52.6839  -23.4576   15.2912 H         1 UNK         0.0566 
    113 H113      -53.2800  -22.3782   17.4749 H         1 UNK         0.0814 
    114 H114      -54.6800  -23.0175   16.6318 H         1 UNK         0.0814 
    115 H115      -54.0215  -23.8875   18.0067 H         1 UNK         0.0814 
    116 H116      -50.7210  -23.8972   16.2220 H         1 UNK         0.3091 
    117 H117      -49.5197  -24.9048   19.1575 H         1 UNK         0.0702 
    118 H118      -48.3175  -26.9338   18.3204 H         1 UNK         0.0785 
    119 H119      -49.5397  -27.1523   17.0688 H         1 UNK         0.0785 
    120 H120      -49.9721  -27.3141   18.7652 H         1 UNK         0.0785 
    121 H121      -48.8499  -24.8311   16.2320 H         1 UNK         0.2998 
    122 H122      -46.4608  -22.2034   16.8567 H         1 UNK         0.0697 
    123 H123      -46.2346  -25.0621   15.7723 H         1 UNK         0.0825 
    124 H124      -45.2957  -24.4011   17.1047 H         1 UNK         0.0825 
    125 H125      -45.0978  -23.7478   15.4864 H         1 UNK         0.0825 
    126 H126      -47.3534  -23.3209   14.4077 H         1 UNK         0.3029 
    127 H127      -49.7108  -20.7104   13.6694 H         1 UNK         0.0897 
    128 H128      -48.1559  -20.6390   11.7334 H         1 UNK         0.0792 
    129 H129      -47.4153  -19.9282   13.1585 H         1 UNK         0.0792 
    130 H130      -46.9432  -21.5398   12.6392 H         1 UNK         0.0792 
    131 H131      -48.6938  -23.3674   12.7441 H         1 UNK         0.3086 
    132 H132      -51.7454  -24.8449   13.2055 H         1 UNK         0.0583 
    133 H133      -52.2522  -25.4438   10.9813 H         1 UNK         0.1020 
    134 H134      -52.6437  -23.7600   11.1496 H         1 UNK         0.1020 
    135 H135      -52.8048  -23.9165    8.4406 H         1 UNK         0.0694 
    136 H136      -51.4468  -24.1952    7.3808 H         1 UNK         0.0694 
    137 H137      -49.4884  -25.5725   11.5571 H         1 UNK         0.2989 
    138 H138      -47.5609  -26.8067   14.2915 H         1 UNK         0.1055 
    139 H139      -49.1742  -28.6516   13.8520 H         1 UNK         0.0806 
    140 H140      -47.6860  -28.9217   12.9687 H         1 UNK         0.0806 
    141 H141      -49.1205  -28.3274   12.1289 H         1 UNK         0.0806 
    142 H142      -46.9201  -27.0607   11.6250 H         1 UNK         0.3061 
    143 H143      -45.6918  -23.9294   10.7248 H         1 UNK         0.0734 
    144 H144      -43.9775  -24.4295   12.4606 H         1 UNK         0.0832 
    145 H145      -43.9826  -26.1289   12.0126 H         1 UNK         0.0832 
    146 H146      -43.4102  -24.9110   10.8709 H         1 UNK         0.0832 
    147 H147      -45.1697  -26.6740    9.9024 H         1 UNK         0.3156 
    148 H148      -46.1133  -27.0636    7.5150 H         1 UNK         0.0589 
    149 H149      -48.1912  -28.1064    9.5488 H         1 UNK         0.0808 
    150 H150      -47.4926  -29.0736    8.2477 H         1 UNK         0.0808 
    151 H151      -46.4820  -28.5092    9.5480 H         1 UNK         0.0808 
    152 H152      -48.4834  -25.6380    7.4593 H         1 UNK         0.3098 
    153 H153      -50.3009  -25.9009    6.1066 H         1 UNK         0.0720 
    154 H154      -49.9467  -25.1828    3.7366 H         1 UNK         0.0791 
    155 H155      -48.6379  -26.3498    3.5557 H         1 UNK         0.0791 
    156 H156      -48.4595  -24.9793    4.6441 H         1 UNK         0.0791 
    157 H157      -50.2871  -28.5167    4.9421 H         1 UNK         0.3028 
@<TRIPOS>BOND
     1    1    2 1    
     2    1   82 1    
     3    1   83 1    
     4    1   84 1    
     5    2    3 2    
     6    2    4 am   BACKBONE|DICT|INTERRES
     7    4    5 1    
     8    4   85 1    
     9    5    6 1    
    10    5   80 1    
    11    5   86 1    
    12    6    7 1    
    13    6   87 1    
    14    6   88 1    
    15    7    8 1    
    16    8    9 1    
    17    8   89 1    
    18    8   90 1    
    19    9   10 ar   
    20    9   14 ar   
    21   10   11 ar   
    22   10   91 1    
    23   11   12 ar   
    24   11   58 1    
    25   12   13 ar   
    26   12   92 1    
    27   13   14 ar   
    28   13   15 1    
    29   14   93 1    
    30   15   16 1    
    31   15   94 1    
    32   15   95 1    
    33   16   17 1    
    34   17   18 1    
    35   17   96 1    
    36   17   97 1    
    37   18   19 1    
    38   18   22 1    
    39   18   98 1    
    40   19   20 am   BACKBONE|DICT|INTERRES
    41   19   21 2    
    42   20   99 1    
    43   20  100 1    
    44   22   23 am   BACKBONE|DICT|INTERRES
    45   22  101 1    
    46   23   24 2    
    47   23   25 1    
    48   25   26 1    
    49   25   27 1    
    50   25  102 1    
    51   26  103 1    
    52   26  104 1    
    53   26  105 1    
    54   27   28 am   BACKBONE|DICT|INTERRES
    55   27  106 1    
    56   28   29 2    
    57   28   30 1    
    58   30   31 1    
    59   30   32 1    
    60   30  107 1    
    61   31  108 1    
    62   31  109 1    
    63   31  110 1    
    64   32   33 am   BACKBONE|DICT|INTERRES
    65   32  111 1    
    66   33   34 2    
    67   33   35 1    
    68   35   36 1    
    69   35   37 1    
    70   35  112 1    
    71   36  113 1    
    72   36  114 1    
    73   36  115 1    
    74   37   38 am   BACKBONE|DICT|INTERRES
    75   37  116 1    
    76   38   39 2    
    77   38   40 1    
    78   40   41 1    
    79   40   42 1    
    80   40  117 1    
    81   41  118 1    
    82   41  119 1    
    83   41  120 1    
    84   42   43 am   BACKBONE|DICT|INTERRES
    85   42  121 1    
    86   43   44 2    
    87   43   45 1    
    88   45   46 1    
    89   45   47 1    
    90   45  122 1    
    91   46  123 1    
    92   46  124 1    
    93   46  125 1    
    94   47   48 am   BACKBONE|DICT|INTERRES
    95   47  126 1    
    96   48   49 2    
    97   48   50 1    
    98   50   51 1    
    99   50   52 1    
   100   50  127 1    
   101   51  128 1    
   102   51  129 1    
   103   51  130 1    
   104   52   53 am   BACKBONE|DICT|INTERRES
   105   52  131 1    
   106   53   54 2    
   107   53   55 1    
   108   55   56 1    
   109   55   59 1    
   110   55  132 1    
   111   56   57 1    
   112   56  133 1    
   113   56  134 1    
   114   57   58 1    
   115   58  135 1    
   116   58  136 1    
   117   59   60 am   BACKBONE|DICT|INTERRES
   118   59  137 1    
   119   60   61 2    
   120   60   62 1    
   121   62   63 1    
   122   62   64 1    
   123   62  138 1    
   124   63  139 1    
   125   63  140 1    
   126   63  141 1    
   127   64   65 am   BACKBONE|DICT|INTERRES
   128   64  142 1    
   129   65   66 2    
   130   65   67 1    
   131   67   68 1    
   132   67   69 1    
   133   67  143 1    
   134   68  144 1    
   135   68  145 1    
   136   68  146 1    
   137   69   70 am   BACKBONE|DICT|INTERRES
   138   69  147 1    
   139   70   71 2    
   140   70   72 1    
   141   72   73 1    
   142   72   74 1    
   143   72  148 1    
   144   73  149 1    
   145   73  150 1    
   146   73  151 1    
   147   74   75 am   BACKBONE|DICT|INTERRES
   148   74  152 1    
   149   75   76 2    
   150   75   77 1    
   151   77   78 1    
   152   77   79 1    
   153   77  153 1    
   154   78  154 1    
   155   78  155 1    
   156   78  156 1    
   157   79   80 am   BACKBONE|DICT|INTERRES
   158   79  157 1    
   159   80   81 2    
@<TRIPOS>SUBSTRUCTURE
     1 UNK         1 GROUP             0       ****    0 ROOT    
