@<TRIPOS>MOLECULE
3R207
157   159    1
SMALL
USER_CHARGES


@<TRIPOS>ATOM
      1 CA        -47.9289  -28.8108    0.3042 C.3       0 UNK        -0.1975 
      2 C         -48.5928  -28.1259    1.4899 C.2       0 UNK         0.4852 
      3 O         -48.1320  -27.0680    1.9215 O.2       0 UNK        -0.5216 
      4 N         -49.6752  -28.7159    2.0140 N.am      1 UNK        -0.4461 
      5 CA        -50.3995  -28.2367    3.1950 C.3       1 UNK         0.0864 
      6 C6        -51.8022  -28.8909    3.2854 C.3       14 UNK        -0.0898 
      7 S7        -52.9713  -27.8850    4.2553 S.3       14 UNK        -0.2598 
      8 C8        -52.9577  -28.7792    5.8479 C.3       14 UNK         0.0286 
      9 C9        -53.2833  -27.9256    7.0733 C.ar      14 UNK        -0.0844 
     10 C10       -53.1330  -26.5325    7.0869 C.ar      14 UNK        -0.0881 
     11 C11       -53.3857  -25.7918    8.2450 C.ar      14 UNK        -0.0643 
     12 C12       -53.7938  -26.4573    9.4069 C.ar      14 UNK        -0.0930 
     13 C13       -53.9304  -27.8477    9.4148 C.ar      14 UNK        -0.0827 
     14 C14       -53.6822  -28.5716    8.2457 C.ar      14 UNK        -0.1249 
     15 C15       -54.2772  -28.5826   10.6977 C.3       14 UNK         0.0141 
     16 S16       -55.9903  -28.3084   11.2387 S.3       14 UNK        -0.2313 
     17 C17       -56.3573  -29.8735   12.1108 C.3       14 UNK        -0.0915 
     18 CA        -55.7716  -29.9538   13.5553 C.3       13 UNK         0.0968 
     19 C         -56.4273  -31.0689   14.4280 C.2       13 UNK         0.5732 
     20 N         -55.7164  -31.6679   15.3771 N.am      13 UNK        -0.7310 
     21 O         -57.6070  -31.3768   14.2726 O.2       13 UNK        -0.5035 
     22 N         -54.2973  -29.9578   13.5807 N.am      13 UNK        -0.4233 
     23 C         -53.4934  -30.9086   13.0781 C.2       13 UNK         0.4989 
     24 O         -53.9067  -31.9364   12.5405 O.2       13 UNK        -0.4996 
     25 CA        -51.9686  -30.6811   13.1467 C.3       12 UNK         0.0216 
     26 CB        -51.3875  -30.4248   11.7426 C.3       12 UNK        -0.1964 
     27 N         -51.5590  -29.6035   14.0544 N.am      12 UNK        -0.4276 
     28 C         -51.6175  -29.6836   15.3915 C.2       12 UNK         0.5020 
     29 O         -51.9466  -30.7017   16.0018 O.2       12 UNK        -0.5489 
     30 CA        -51.3045  -28.3994   16.1803 C.3       11 UNK         0.0294 
     31 CB        -49.7916  -28.2887   16.4318 C.3       11 UNK        -0.2019 
     32 N         -51.7864  -27.1721   15.5344 N.am      11 UNK        -0.4493 
     33 C         -53.0513  -26.9250   15.1642 C.2       11 UNK         0.4932 
     34 O         -53.9821  -27.7081   15.3554 O.2       11 UNK        -0.5029 
     35 CA        -53.3042  -25.5929   14.4344 C.3       10 UNK         0.0280 
     36 CB        -54.7951  -25.3442   14.1238 C.3       10 UNK        -0.1976 
     37 N         -52.7114  -24.4417   15.1239 N.am      10 UNK        -0.4242 
     38 C         -52.9527  -24.0358   16.3806 C.2       10 UNK         0.5072 
     39 O         -53.7699  -24.5716   17.1325 O.2       10 UNK        -0.5224 
     40 CA        -52.1378  -22.8223   16.8775 C.3       9 UNK         0.0343 
     41 CB        -52.2637  -22.6006   18.4000 C.3       9 UNK        -0.2003 
     42 N         -50.7213  -22.8602   16.4910 N.am      9 UNK        -0.4272 
     43 C         -49.8264  -23.8307   16.7266 C.2       9 UNK         0.4988 
     44 O         -50.1012  -24.8857   17.2984 O.2       9 UNK        -0.5108 
     45 CA        -48.3827  -23.5794   16.2353 C.3       8 UNK         0.0248 
     46 CB        -47.4696  -24.8017   16.4504 C.3       8 UNK        -0.2001 
     47 N         -48.3178  -23.1855   14.8239 N.am      8 UNK        -0.4140 
     48 C         -48.6784  -21.9952   14.3246 C.2       8 UNK         0.5028 
     49 O         -49.0622  -21.0538   15.0210 O.2       8 UNK        -0.5428 
     50 CA        -48.6720  -21.8397   12.7949 C.3       7 UNK         0.0264 
     51 CB        -47.2802  -21.4159   12.3024 C.3       7 UNK        -0.1988 
     52 N         -49.1103  -23.0337   12.0636 N.am      7 UNK        -0.4454 
     53 C         -50.2944  -23.6513   12.2109 C.2       7 UNK         0.5027 
     54 O         -51.1360  -23.3308   13.0515 O.2       7 UNK        -0.5083 
     55 CA        -50.5718  -24.8433   11.2726 C.3       6 UNK         0.0844 
     56 C56       -50.8700  -24.3771    9.8250 C.3       14 UNK        -0.0967 
     57 S57       -52.4957  -23.5485    9.7121 S.3       14 UNK        -0.2604 
     58 C58       -53.2155  -24.2753    8.2032 C.3       14 UNK         0.0134 
     59 N         -49.4443  -25.7716   11.3470 N.am      6 UNK        -0.4116 
     60 C         -49.3362  -26.7576   12.2499 C.2       5 UNK         0.5034 
     61 O         -50.2694  -27.1501   12.9519 O.2       5 UNK        -0.5045 
     62 CA        -47.9551  -27.4186   12.4275 C.3       5 UNK         0.0224 
     63 CB        -47.9645  -28.8699   11.9292 C.3       5 UNK        -0.1978 
     64 N         -46.8578  -26.6897   11.7837 N.am      5 UNK        -0.4737 
     65 C         -46.3333  -25.5525   12.2595 C.2       4 UNK         0.5027 
     66 O         -46.7271  -24.9974   13.2833 O.2       4 UNK        -0.5211 
     67 CA        -45.2270  -24.8941   11.4186 C.3       4 UNK         0.0297 
     68 CB        -43.8605  -25.5117   11.7536 C.3       4 UNK        -0.1993 
     69 N         -45.4555  -24.9577    9.9695 N.am      4 UNK        -0.4486 
     70 C         -46.5448  -24.5044    9.3316 C.2       3 UNK         0.4961 
     71 O         -47.5291  -24.0398    9.9073 O.2       3 UNK        -0.5105 
     72 CA        -46.5613  -24.6229    7.8029 C.3       3 UNK         0.0299 
     73 CB        -45.1614  -24.5138    7.1648 C.3       3 UNK        -0.1972 
     74 N         -47.1641  -25.9038    7.4396 N.am      3 UNK        -0.4305 
     75 C         -48.3818  -26.0594    6.9085 C.2       2 UNK         0.5006 
     76 O         -49.1550  -25.1358    6.6423 O.2       2 UNK        -0.5106 
     77 CA        -48.8163  -27.5021    6.6358 C.3       2 UNK         0.0296 
     78 CB        -49.6441  -28.0569    7.8092 C.3       2 UNK        -0.2002 
     79 N         -49.6056  -27.5161    5.4070 N.am      2 UNK        -0.4032 
     80 C         -49.5660  -28.4748    4.4744 C.2       1 UNK         0.5000 
     81 O         -48.9230  -29.5222    4.5940 O.2       1 UNK        -0.5238 
     82 H82       -47.9180  -28.1433   -0.5570 H         1 UNK         0.0889 
     83 H83       -48.4484  -29.7251    0.0176 H         1 UNK         0.0889 
     84 H84       -46.8989  -29.0688    0.5491 H         1 UNK         0.0889 
     85 H85       -49.9861  -29.6006    1.6386 H         1 UNK         0.3028 
     86 H86       -50.5299  -27.1593    3.0666 H         1 UNK         0.0864 
     87 H87       -51.7521  -29.9108    3.6725 H         1 UNK         0.0720 
     88 H88       -52.2350  -28.9771    2.2872 H         1 UNK         0.0720 
     89 H89       -51.9771  -29.2265    6.0109 H         1 UNK         0.0814 
     90 H90       -53.6646  -29.6074    5.7761 H         1 UNK         0.0814 
     91 H91       -52.8041  -26.0120    6.1993 H         1 UNK         0.1469 
     92 H92       -53.9890  -25.8988   10.3120 H         1 UNK         0.1381 
     93 H93       -53.7744  -29.6493    8.2543 H         1 UNK         0.1206 
     94 H94       -53.6040  -28.2497   11.4881 H         1 UNK         0.0813 
     95 H95       -54.1059  -29.6510   10.5643 H         1 UNK         0.0813 
     96 H96       -57.4459  -29.9408   12.1413 H         1 UNK         0.0638 
     97 H97       -56.0320  -30.7184   11.5028 H         1 UNK         0.0638 
     98 H98       -56.0597  -29.0316   14.0606 H         1 UNK         0.0568 
     99 H99       -56.1502  -32.3784   15.9446 H         1 UNK         0.3450 
    100 H100      -54.7523  -31.4153   15.5295 H         1 UNK         0.3450 
    101 H101      -53.8895  -29.1750   14.0809 H         1 UNK         0.2987 
    102 H102      -51.5406  -31.6160   13.5148 H         1 UNK         0.0766 
    103 H103      -51.5063  -29.3885   11.4263 H         1 UNK         0.0798 
    104 H104      -51.8634  -31.0533   10.9881 H         1 UNK         0.0798 
    105 H105      -50.3267  -30.6646   11.7115 H         1 UNK         0.0798 
    106 H106      -51.2467  -28.7285   13.6395 H         1 UNK         0.3198 
    107 H107      -51.8097  -28.4771   17.1450 H         1 UNK         0.0843 
    108 H108      -49.5596  -27.4657   17.1069 H         1 UNK         0.0831 
    109 H109      -49.2381  -28.1313   15.5057 H         1 UNK         0.0831 
    110 H110      -49.4043  -29.1982   16.8932 H         1 UNK         0.0831 
    111 H111      -51.0889  -26.4691   15.3350 H         1 UNK         0.3133 
    112 H112      -52.7870  -25.6752   13.4793 H         1 UNK         0.0566 
    113 H113      -54.9336  -24.4198   13.5632 H         1 UNK         0.0814 
    114 H114      -55.2079  -26.1530   13.5192 H         1 UNK         0.0814 
    115 H115      -55.3936  -25.2802   15.0330 H         1 UNK         0.0814 
    116 H116      -52.0375  -23.9168   14.5684 H         1 UNK         0.3091 
    117 H117      -52.5650  -21.9501   16.3807 H         1 UNK         0.0702 
    118 H118      -51.7115  -21.7167   18.7193 H         1 UNK         0.0785 
    119 H119      -51.8853  -23.4545   18.9632 H         1 UNK         0.0785 
    120 H120      -53.3044  -22.4527   18.6910 H         1 UNK         0.0785 
    121 H121      -50.3747  -22.0447   15.9907 H         1 UNK         0.2998 
    122 H122      -47.9837  -22.7596   16.8360 H         1 UNK         0.0697 
    123 H123      -46.4441  -24.5886   16.1481 H         1 UNK         0.0825 
    124 H124      -47.4423  -25.0942   17.5008 H         1 UNK         0.0825 
    125 H125      -47.8128  -25.6645   15.8780 H         1 UNK         0.0825 
    126 H126      -47.9552  -23.8854   14.1796 H         1 UNK         0.3029 
    127 H127      -49.3765  -21.0427   12.5483 H         1 UNK         0.0897 
    128 H128      -47.2637  -21.2730   11.2216 H         1 UNK         0.0792 
    129 H129      -46.9765  -20.4732   12.7597 H         1 UNK         0.0792 
    130 H130      -46.5235  -22.1574   12.5564 H         1 UNK         0.0792 
    131 H131      -48.4841  -23.3656   11.3328 H         1 UNK         0.3086 
    132 H132      -51.4640  -25.3570   11.6342 H         1 UNK         0.0583 
    133 H133      -50.1006  -23.7031    9.4446 H         1 UNK         0.1020 
    134 H134      -50.8595  -25.2383    9.1559 H         1 UNK         0.1020 
    135 H135      -54.1929  -23.8228    8.0317 H         1 UNK         0.0694 
    136 H136      -52.5877  -23.9846    7.3591 H         1 UNK         0.0694 
    137 H137      -48.6172  -25.4993   10.8297 H         1 UNK         0.2989 
    138 H138      -47.7545  -27.4384   13.5013 H         1 UNK         0.1055 
    139 H139      -48.3060  -28.9487   10.8968 H         1 UNK         0.0806 
    140 H140      -48.6265  -29.4738   12.5488 H         1 UNK         0.0806 
    141 H141      -46.9748  -29.3223   11.9942 H         1 UNK         0.0806 
    142 H142      -46.4786  -27.0780   10.9322 H         1 UNK         0.3061 
    143 H143      -45.1927  -23.8388   11.6921 H         1 UNK         0.0734 
    144 H144      -43.0504  -24.9824   11.2515 H         1 UNK         0.0832 
    145 H145      -43.6617  -25.4593   12.8252 H         1 UNK         0.0832 
    146 H146      -43.8072  -26.5620   11.4641 H         1 UNK         0.0832 
    147 H147      -44.6979  -25.3248    9.4120 H         1 UNK         0.3156 
    148 H148      -47.1616  -23.7920    7.4261 H         1 UNK         0.0589 
    149 H149      -44.5214  -25.3632    7.4058 H         1 UNK         0.0808 
    150 H150      -45.2363  -24.4631    6.0783 H         1 UNK         0.0808 
    151 H151      -44.6498  -23.6067    7.4906 H         1 UNK         0.0808 
    152 H152      -46.6185  -26.7296    7.6429 H         1 UNK         0.3098 
    153 H153      -47.9222  -28.1159    6.5054 H         1 UNK         0.0720 
    154 H154      -49.0648  -28.0544    8.7326 H         1 UNK         0.0791 
    155 H155      -49.9567  -29.0846    7.6245 H         1 UNK         0.0791 
    156 H156      -50.5398  -27.4621    7.9884 H         1 UNK         0.0791 
    157 H157      -50.1214  -26.6627    5.2330 H         1 UNK         0.3028 
@<TRIPOS>BOND
     1    1    2 1    
     2    1   82 1    
     3    1   83 1    
     4    1   84 1    
     5    2    3 2    
     6    2    4 am   BACKBONE|DICT|INTERRES
     7    4    5 1    
     8    4   85 1    
     9    5    6 1    
    10    5   80 1    
    11    5   86 1    
    12    6    7 1    
    13    6   87 1    
    14    6   88 1    
    15    7    8 1    
    16    8    9 1    
    17    8   89 1    
    18    8   90 1    
    19    9   10 ar   
    20    9   14 ar   
    21   10   11 ar   
    22   10   91 1    
    23   11   12 ar   
    24   11   58 1    
    25   12   13 ar   
    26   12   92 1    
    27   13   14 ar   
    28   13   15 1    
    29   14   93 1    
    30   15   16 1    
    31   15   94 1    
    32   15   95 1    
    33   16   17 1    
    34   17   18 1    
    35   17   96 1    
    36   17   97 1    
    37   18   19 1    
    38   18   22 1    
    39   18   98 1    
    40   19   20 am   BACKBONE|DICT|INTERRES
    41   19   21 2    
    42   20   99 1    
    43   20  100 1    
    44   22   23 am   BACKBONE|DICT|INTERRES
    45   22  101 1    
    46   23   24 2    
    47   23   25 1    
    48   25   26 1    
    49   25   27 1    
    50   25  102 1    
    51   26  103 1    
    52   26  104 1    
    53   26  105 1    
    54   27   28 am   BACKBONE|DICT|INTERRES
    55   27  106 1    
    56   28   29 2    
    57   28   30 1    
    58   30   31 1    
    59   30   32 1    
    60   30  107 1    
    61   31  108 1    
    62   31  109 1    
    63   31  110 1    
    64   32   33 am   BACKBONE|DICT|INTERRES
    65   32  111 1    
    66   33   34 2    
    67   33   35 1    
    68   35   36 1    
    69   35   37 1    
    70   35  112 1    
    71   36  113 1    
    72   36  114 1    
    73   36  115 1    
    74   37   38 am   BACKBONE|DICT|INTERRES
    75   37  116 1    
    76   38   39 2    
    77   38   40 1    
    78   40   41 1    
    79   40   42 1    
    80   40  117 1    
    81   41  118 1    
    82   41  119 1    
    83   41  120 1    
    84   42   43 am   BACKBONE|DICT|INTERRES
    85   42  121 1    
    86   43   44 2    
    87   43   45 1    
    88   45   46 1    
    89   45   47 1    
    90   45  122 1    
    91   46  123 1    
    92   46  124 1    
    93   46  125 1    
    94   47   48 am   BACKBONE|DICT|INTERRES
    95   47  126 1    
    96   48   49 2    
    97   48   50 1    
    98   50   51 1    
    99   50   52 1    
   100   50  127 1    
   101   51  128 1    
   102   51  129 1    
   103   51  130 1    
   104   52   53 am   BACKBONE|DICT|INTERRES
   105   52  131 1    
   106   53   54 2    
   107   53   55 1    
   108   55   56 1    
   109   55   59 1    
   110   55  132 1    
   111   56   57 1    
   112   56  133 1    
   113   56  134 1    
   114   57   58 1    
   115   58  135 1    
   116   58  136 1    
   117   59   60 am   BACKBONE|DICT|INTERRES
   118   59  137 1    
   119   60   61 2    
   120   60   62 1    
   121   62   63 1    
   122   62   64 1    
   123   62  138 1    
   124   63  139 1    
   125   63  140 1    
   126   63  141 1    
   127   64   65 am   BACKBONE|DICT|INTERRES
   128   64  142 1    
   129   65   66 2    
   130   65   67 1    
   131   67   68 1    
   132   67   69 1    
   133   67  143 1    
   134   68  144 1    
   135   68  145 1    
   136   68  146 1    
   137   69   70 am   BACKBONE|DICT|INTERRES
   138   69  147 1    
   139   70   71 2    
   140   70   72 1    
   141   72   73 1    
   142   72   74 1    
   143   72  148 1    
   144   73  149 1    
   145   73  150 1    
   146   73  151 1    
   147   74   75 am   BACKBONE|DICT|INTERRES
   148   74  152 1    
   149   75   76 2    
   150   75   77 1    
   151   77   78 1    
   152   77   79 1    
   153   77  153 1    
   154   78  154 1    
   155   78  155 1    
   156   78  156 1    
   157   79   80 am   BACKBONE|DICT|INTERRES
   158   79  157 1    
   159   80   81 2    
@<TRIPOS>SUBSTRUCTURE
     1 UNK         1 GROUP             0       ****    0 ROOT    
