@<TRIPOS>MOLECULE
3R207
157   159    1
SMALL
USER_CHARGES


@<TRIPOS>ATOM
      1 CA        -46.3786  -30.4104    2.2597 C.3       0 UNK        -0.1975 
      2 C         -47.4155  -29.3378    2.5581 C.2       0 UNK         0.4852 
      3 O         -47.4757  -28.3314    1.8509 O.2       0 UNK        -0.5216 
      4 N         -48.2316  -29.5461    3.6002 N.am      1 UNK        -0.4461 
      5 CA        -49.2800  -28.6242    4.0577 C.3       1 UNK         0.0864 
      6 C6        -50.3037  -29.3166    4.9973 C.3       14 UNK        -0.0898 
      7 S7        -49.5782  -30.4144    6.2695 S.3       14 UNK        -0.2598 
      8 C8        -49.3373  -29.3082    7.6930 C.3       14 UNK         0.0286 
      9 C9        -50.6426  -28.8970    8.3531 C.ar      14 UNK        -0.0844 
     10 C10       -51.2609  -27.6965    8.0003 C.ar      14 UNK        -0.0881 
     11 C11       -52.4426  -27.2971    8.6283 C.ar      14 UNK        -0.0643 
     12 C12       -53.0024  -28.1051    9.6218 C.ar      14 UNK        -0.0930 
     13 C13       -52.3865  -29.3082    9.9976 C.ar      14 UNK        -0.0827 
     14 C14       -51.2086  -29.6946    9.3502 C.ar      14 UNK        -0.1249 
     15 C15       -52.9189  -30.2139   11.1093 C.3       14 UNK         0.0141 
     16 S16       -54.5397  -29.7512   11.8056 S.3       14 UNK        -0.2313 
     17 C17       -54.6501  -30.9555   13.1683 C.3       14 UNK        -0.0915 
     18 CA        -55.9060  -30.7469   14.0526 C.3       13 UNK         0.0968 
     19 C         -55.9984  -31.8504   15.1470 C.2       13 UNK         0.5732 
     20 N         -55.8853  -31.5293   16.4305 N.am      13 UNK        -0.7310 
     21 O         -56.1825  -33.0213   14.8227 O.2       13 UNK        -0.5035 
     22 N         -55.9924  -29.3658   14.5547 N.am      13 UNK        -0.4233 
     23 C         -57.1046  -28.7917   15.0287 C.2       13 UNK         0.4989 
     24 O         -58.1917  -29.3640   15.1160 O.2       13 UNK        -0.4996 
     25 CA        -56.9906  -27.3294   15.4803 C.3       12 UNK         0.0216 
     26 CB        -56.6806  -27.2534   16.9844 C.3       12 UNK        -0.1964 
     27 N         -55.9669  -26.5879   14.7395 N.am      12 UNK        -0.4276 
     28 C         -56.1734  -25.9735   13.5640 C.2       12 UNK         0.5020 
     29 O         -57.2364  -26.0517   12.9449 O.2       12 UNK        -0.5489 
     30 CA        -55.0221  -25.1187   12.9784 C.3       11 UNK         0.0294 
     31 CB        -55.5387  -23.8620   12.2487 C.3       11 UNK        -0.2019 
     32 N         -53.9827  -24.7514   13.9487 N.am      11 UNK        -0.4493 
     33 C         -54.1279  -24.1148   15.1222 C.2       11 UNK         0.4932 
     34 O         -55.1760  -23.5803   15.4870 O.2       11 UNK        -0.5029 
     35 CA        -52.9119  -24.1358   16.0744 C.3       10 UNK         0.0280 
     36 CB        -53.3328  -24.1164   17.5586 C.3       10 UNK        -0.1976 
     37 N         -51.9817  -25.2486   15.8282 N.am      10 UNK        -0.4242 
     38 C         -52.2515  -26.5656   15.8117 C.2       10 UNK         0.5072 
     39 O         -53.3676  -27.0318   16.0510 O.2       10 UNK        -0.5224 
     40 CA        -51.1248  -27.5312   15.3895 C.3       9 UNK         0.0343 
     41 CB        -51.5340  -28.3043   14.1233 C.3       9 UNK        -0.2003 
     42 N         -49.8433  -26.8678   15.1355 N.am      9 UNK        -0.4272 
     43 C         -48.9772  -26.4750   16.0794 C.2       9 UNK         0.4988 
     44 O         -49.1220  -26.7042   17.2804 O.2       9 UNK        -0.5108 
     45 CA        -47.7682  -25.6447   15.6085 C.3       8 UNK         0.0248 
     46 CB        -46.6220  -26.5624   15.1557 C.3       8 UNK        -0.2001 
     47 N         -48.1006  -24.6938   14.5396 N.am      8 UNK        -0.4140 
     48 C         -48.9781  -23.6865   14.6692 C.2       8 UNK         0.5028 
     49 O         -49.5654  -23.4256   15.7187 O.2       8 UNK        -0.5428 
     50 CA        -49.3054  -22.8633   13.4135 C.3       7 UNK         0.0264 
     51 CB        -48.2212  -21.8067   13.1495 C.3       7 UNK        -0.1988 
     52 N         -49.4945  -23.6898   12.2208 N.am      7 UNK        -0.4454 
     53 C         -50.4554  -24.6135   12.0664 C.2       7 UNK         0.5027 
     54 O         -51.3182  -24.8560   12.9103 O.2       7 UNK        -0.5083 
     55 CA        -50.4120  -25.4422   10.7674 C.3       6 UNK         0.0844 
     56 C56       -50.9751  -24.6408    9.5646 C.3       14 UNK        -0.0967 
     57 S57       -52.7988  -24.6917    9.5122 S.3       14 UNK        -0.2604 
     58 C58       -53.0965  -25.9750    8.2545 C.3       14 UNK         0.0134 
     59 N         -49.0721  -25.9786   10.5084 N.am      6 UNK        -0.4116 
     60 C         -48.3966  -26.7842   11.3429 C.2       5 UNK         0.5034 
     61 O         -48.8615  -27.2431   12.3857 O.2       5 UNK        -0.5045 
     62 CA        -46.9249  -27.0653   10.9993 C.3       5 UNK         0.0224 
     63 CB        -46.7829  -28.2530   10.0385 C.3       5 UNK        -0.1978 
     64 N         -46.2596  -25.8890   10.4375 N.am      5 UNK        -0.4737 
     65 C         -45.9591  -24.7912   11.1448 C.2       4 UNK         0.5027 
     66 O         -46.1511  -24.6847   12.3555 O.2       4 UNK        -0.5211 
     67 CA        -45.4000  -23.5968   10.3546 C.3       4 UNK         0.0297 
     68 CB        -43.8903  -23.7609   10.1192 C.3       4 UNK        -0.1993 
     69 N         -46.0838  -23.4057    9.0717 N.am      4 UNK        -0.4486 
     70 C         -47.3762  -23.0701    8.9481 C.2       3 UNK         0.4961 
     71 O         -48.1143  -22.8358    9.9033 O.2       3 UNK        -0.5105 
     72 CA        -47.9591  -23.0275    7.5259 C.3       3 UNK         0.0299 
     73 CB        -47.7989  -21.6237    6.9223 C.3       3 UNK        -0.1972 
     74 N         -47.3735  -24.0226    6.6223 N.am      3 UNK        -0.4305 
     75 C         -47.4839  -25.3503    6.7686 C.2       2 UNK         0.5006 
     76 O         -48.0675  -25.8931    7.7098 O.2       2 UNK        -0.5106 
     77 CA        -46.7486  -26.2064    5.7222 C.3       2 UNK         0.0296 
     78 CB        -45.4183  -26.7142    6.3030 C.3       2 UNK        -0.2002 
     79 N         -47.5184  -27.3516    5.2269 N.am      2 UNK        -0.4032 
     80 C         -48.7294  -27.3052    4.6485 C.2       1 UNK         0.5000 
     81 O         -49.3944  -26.2747    4.5263 O.2       1 UNK        -0.5238 
     82 H82       -46.4397  -31.2431    2.9603 H         1 UNK         0.0889 
     83 H83       -45.3754  -29.9895    2.3199 H         1 UNK         0.0889 
     84 H84       -46.5241  -30.8028    1.2537 H         1 UNK         0.0889 
     85 H85       -48.1474  -30.3960    4.1417 H         1 UNK         0.3028 
     86 H86       -49.8344  -28.3237    3.1654 H         1 UNK         0.0864 
     87 H87       -50.9820  -28.5948    5.4513 H         1 UNK         0.0720 
     88 H88       -50.9491  -29.9510    4.3878 H         1 UNK         0.0720 
     89 H89       -48.7126  -29.8263    8.4211 H         1 UNK         0.0814 
     90 H90       -48.7763  -28.4276    7.3875 H         1 UNK         0.0814 
     91 H91       -50.8104  -27.0635    7.2474 H         1 UNK         0.1469 
     92 H92       -53.9056  -27.7678   10.1086 H         1 UNK         0.1381 
     93 H93       -50.7200  -30.6171    9.6334 H         1 UNK         0.1206 
     94 H94       -52.1845  -30.2294   11.9154 H         1 UNK         0.0813 
     95 H95       -52.9887  -31.2351   10.7316 H         1 UNK         0.0813 
     96 H96       -53.7447  -30.8849   13.7735 H         1 UNK         0.0638 
     97 H97       -54.6524  -31.9557   12.7307 H         1 UNK         0.0638 
     98 H98       -56.7761  -30.9016   13.4116 H         1 UNK         0.0568 
     99 H99       -55.9514  -32.2537   17.1278 H         1 UNK         0.3450 
    100 H100      -55.7343  -30.5731   16.7070 H         1 UNK         0.3450 
    101 H101      -55.1433  -28.8227   14.5187 H         1 UNK         0.2987 
    102 H102      -57.9605  -26.8553   15.3143 H         1 UNK         0.0766 
    103 H103      -56.6387  -26.2191   17.3271 H         1 UNK         0.0798 
    104 H104      -55.7272  -27.7238   17.2278 H         1 UNK         0.0798 
    105 H105      -57.4521  -27.7575   17.5681 H         1 UNK         0.0798 
    106 H106      -55.0528  -26.5142   15.1798 H         1 UNK         0.3198 
    107 H107      -54.5280  -25.7504   12.2381 H         1 UNK         0.0843 
    108 H108      -54.7166  -23.2884   11.8204 H         1 UNK         0.0831 
    109 H109      -56.0949  -23.2061   12.9189 H         1 UNK         0.0831 
    110 H110      -56.2040  -24.1303   11.4272 H         1 UNK         0.0831 
    111 H111      -53.0402  -25.0538   13.7082 H         1 UNK         0.3133 
    112 H112      -52.3529  -23.2215   15.8720 H         1 UNK         0.0566 
    113 H113      -52.4635  -24.1190   18.2163 H         1 UNK         0.0814 
    114 H114      -53.9106  -23.2215   17.7927 H         1 UNK         0.0814 
    115 H115      -53.9499  -24.9787   17.8138 H         1 UNK         0.0814 
    116 H116      -51.0394  -24.9596   15.5917 H         1 UNK         0.3091 
    117 H117      -50.9941  -28.2499   16.2009 H         1 UNK         0.0702 
    118 H118      -52.4589  -28.8588   14.2821 H         1 UNK         0.0785 
    119 H119      -50.7695  -29.0260   13.8354 H         1 UNK         0.0785 
    120 H120      -51.6955  -27.6364   13.2758 H         1 UNK         0.0785 
    121 H121      -49.6114  -26.6966   14.1610 H         1 UNK         0.2998 
    122 H122      -47.4168  -25.0622   16.4626 H         1 UNK         0.0697 
    123 H123      -46.9132  -27.1841   14.3094 H         1 UNK         0.0825 
    124 H124      -46.3183  -27.2320   15.9614 H         1 UNK         0.0825 
    125 H125      -45.7432  -25.9873   14.8631 H         1 UNK         0.0825 
    126 H126      -47.6064  -24.8015   13.6574 H         1 UNK         0.3029 
    127 H127      -50.2473  -22.3428   13.6001 H         1 UNK         0.0897 
    128 H128      -48.4872  -21.1691   12.3061 H         1 UNK         0.0792 
    129 H129      -48.0878  -21.1591   14.0171 H         1 UNK         0.0792 
    130 H130      -47.2555  -22.2625   12.9303 H         1 UNK         0.0792 
    131 H131      -48.8608  -23.5149   11.4424 H         1 UNK         0.3086 
    132 H132      -51.0447  -26.3174   10.9284 H         1 UNK         0.0583 
    133 H133      -50.6559  -23.5974    9.5873 H         1 UNK         0.1020 
    134 H134      -50.5875  -25.0342    8.6246 H         1 UNK         0.1020 
    135 H135      -54.1720  -26.1192    8.1427 H         1 UNK         0.0694 
    136 H136      -52.7325  -25.6223    7.2880 H         1 UNK         0.0694 
    137 H137      -48.6274  -25.7061    9.6384 H         1 UNK         0.2989 
    138 H138      -46.4198  -27.3287   11.9311 H         1 UNK         0.1055 
    139 H139      -47.3242  -29.1242   10.4103 H         1 UNK         0.0806 
    140 H140      -45.7389  -28.5448    9.9240 H         1 UNK         0.0806 
    141 H141      -47.1714  -28.0165    9.0500 H         1 UNK         0.0806 
    142 H142      -46.1123  -25.8783    9.4390 H         1 UNK         0.3061 
    143 H143      -45.5567  -22.6989   10.9565 H         1 UNK         0.0734 
    144 H144      -43.4667  -22.8830    9.6312 H         1 UNK         0.0832 
    145 H145      -43.3618  -23.8894   11.0650 H         1 UNK         0.0832 
    146 H146      -43.6662  -24.6311    9.5009 H         1 UNK         0.0832 
    147 H147      -45.5462  -23.5658    8.2326 H         1 UNK         0.3156 
    148 H148      -49.0268  -23.2419    7.6024 H         1 UNK         0.0589 
    149 H149      -46.7500  -21.3552    6.7903 H         1 UNK         0.0808 
    150 H150      -48.2903  -21.5500    5.9518 H         1 UNK         0.0808 
    151 H151      -48.2494  -20.8686    7.5684 H         1 UNK         0.0808 
    152 H152      -46.8678  -23.6635    5.8248 H         1 UNK         0.3098 
    153 H153      -46.5273  -25.5795    4.8561 H         1 UNK         0.0720 
    154 H154      -44.8333  -27.2443    5.5510 H         1 UNK         0.0791 
    155 H155      -45.5772  -27.3922    7.1426 H         1 UNK         0.0791 
    156 H156      -44.8032  -25.8880    6.6623 H         1 UNK         0.0791 
    157 H157      -47.0647  -28.2512    5.2786 H         1 UNK         0.3028 
@<TRIPOS>BOND
     1    1    2 1    
     2    1   82 1    
     3    1   83 1    
     4    1   84 1    
     5    2    3 2    
     6    2    4 am   BACKBONE|DICT|INTERRES
     7    4    5 1    
     8    4   85 1    
     9    5    6 1    
    10    5   80 1    
    11    5   86 1    
    12    6    7 1    
    13    6   87 1    
    14    6   88 1    
    15    7    8 1    
    16    8    9 1    
    17    8   89 1    
    18    8   90 1    
    19    9   10 ar   
    20    9   14 ar   
    21   10   11 ar   
    22   10   91 1    
    23   11   12 ar   
    24   11   58 1    
    25   12   13 ar   
    26   12   92 1    
    27   13   14 ar   
    28   13   15 1    
    29   14   93 1    
    30   15   16 1    
    31   15   94 1    
    32   15   95 1    
    33   16   17 1    
    34   17   18 1    
    35   17   96 1    
    36   17   97 1    
    37   18   19 1    
    38   18   22 1    
    39   18   98 1    
    40   19   20 am   BACKBONE|DICT|INTERRES
    41   19   21 2    
    42   20   99 1    
    43   20  100 1    
    44   22   23 am   BACKBONE|DICT|INTERRES
    45   22  101 1    
    46   23   24 2    
    47   23   25 1    
    48   25   26 1    
    49   25   27 1    
    50   25  102 1    
    51   26  103 1    
    52   26  104 1    
    53   26  105 1    
    54   27   28 am   BACKBONE|DICT|INTERRES
    55   27  106 1    
    56   28   29 2    
    57   28   30 1    
    58   30   31 1    
    59   30   32 1    
    60   30  107 1    
    61   31  108 1    
    62   31  109 1    
    63   31  110 1    
    64   32   33 am   BACKBONE|DICT|INTERRES
    65   32  111 1    
    66   33   34 2    
    67   33   35 1    
    68   35   36 1    
    69   35   37 1    
    70   35  112 1    
    71   36  113 1    
    72   36  114 1    
    73   36  115 1    
    74   37   38 am   BACKBONE|DICT|INTERRES
    75   37  116 1    
    76   38   39 2    
    77   38   40 1    
    78   40   41 1    
    79   40   42 1    
    80   40  117 1    
    81   41  118 1    
    82   41  119 1    
    83   41  120 1    
    84   42   43 am   BACKBONE|DICT|INTERRES
    85   42  121 1    
    86   43   44 2    
    87   43   45 1    
    88   45   46 1    
    89   45   47 1    
    90   45  122 1    
    91   46  123 1    
    92   46  124 1    
    93   46  125 1    
    94   47   48 am   BACKBONE|DICT|INTERRES
    95   47  126 1    
    96   48   49 2    
    97   48   50 1    
    98   50   51 1    
    99   50   52 1    
   100   50  127 1    
   101   51  128 1    
   102   51  129 1    
   103   51  130 1    
   104   52   53 am   BACKBONE|DICT|INTERRES
   105   52  131 1    
   106   53   54 2    
   107   53   55 1    
   108   55   56 1    
   109   55   59 1    
   110   55  132 1    
   111   56   57 1    
   112   56  133 1    
   113   56  134 1    
   114   57   58 1    
   115   58  135 1    
   116   58  136 1    
   117   59   60 am   BACKBONE|DICT|INTERRES
   118   59  137 1    
   119   60   61 2    
   120   60   62 1    
   121   62   63 1    
   122   62   64 1    
   123   62  138 1    
   124   63  139 1    
   125   63  140 1    
   126   63  141 1    
   127   64   65 am   BACKBONE|DICT|INTERRES
   128   64  142 1    
   129   65   66 2    
   130   65   67 1    
   131   67   68 1    
   132   67   69 1    
   133   67  143 1    
   134   68  144 1    
   135   68  145 1    
   136   68  146 1    
   137   69   70 am   BACKBONE|DICT|INTERRES
   138   69  147 1    
   139   70   71 2    
   140   70   72 1    
   141   72   73 1    
   142   72   74 1    
   143   72  148 1    
   144   73  149 1    
   145   73  150 1    
   146   73  151 1    
   147   74   75 am   BACKBONE|DICT|INTERRES
   148   74  152 1    
   149   75   76 2    
   150   75   77 1    
   151   77   78 1    
   152   77   79 1    
   153   77  153 1    
   154   78  154 1    
   155   78  155 1    
   156   78  156 1    
   157   79   80 am   BACKBONE|DICT|INTERRES
   158   79  157 1    
   159   80   81 2    
@<TRIPOS>SUBSTRUCTURE
     1 UNK         1 GROUP             0       ****    0 ROOT    
