@<TRIPOS>MOLECULE
3R207
157   159    1
SMALL
USER_CHARGES


@<TRIPOS>ATOM
      1 CA        -49.1772  -26.5782    2.7835 C.3       0 UNK        -0.1975 
      2 C         -49.1206  -26.5222    4.3020 C.2       0 UNK         0.4852 
      3 O         -48.0291  -26.4469    4.8682 O.2       0 UNK        -0.5216 
      4 N         -50.2867  -26.5328    4.9661 N.am      1 UNK        -0.4461 
      5 CA        -50.4482  -26.5449    6.4299 C.3       1 UNK         0.0864 
      6 C6        -50.0457  -27.9100    7.0515 C.3       14 UNK        -0.0898 
      7 S7        -51.2386  -29.2074    6.5883 S.3       14 UNK        -0.2598 
      8 C8        -50.4270  -30.7016    7.2375 C.3       14 UNK         0.0286 
      9 C9        -50.3679  -30.7192    8.7593 C.ar      14 UNK        -0.0844 
     10 C10       -49.1357  -30.6760    9.4163 C.ar      14 UNK        -0.0881 
     11 C11       -49.0702  -30.7277   10.8121 C.ar      14 UNK        -0.0643 
     12 C12       -50.2537  -30.7970   11.5551 C.ar      14 UNK        -0.0930 
     13 C13       -51.4941  -30.8541   10.9092 C.ar      14 UNK        -0.0827 
     14 C14       -51.5419  -30.8219    9.5115 C.ar      14 UNK        -0.1249 
     15 C15       -52.7784  -31.0015   11.7155 C.3       14 UNK         0.0141 
     16 S16       -53.9072  -29.5996   11.4603 S.3       14 UNK        -0.2313 
     17 C17       -55.2318  -30.0064   12.6440 C.3       14 UNK        -0.0915 
     18 CA        -56.4224  -29.0164   12.5574 C.3       13 UNK         0.0968 
     19 C         -57.5964  -29.4520   13.4846 C.2       13 UNK         0.5732 
     20 N         -58.0597  -28.6355   14.4249 N.am      13 UNK        -0.7310 
     21 O         -58.1135  -30.5568   13.3347 O.2       13 UNK        -0.5035 
     22 N         -55.9816  -27.6285   12.7507 N.am      13 UNK        -0.4233 
     23 C         -56.6358  -26.5459   12.3174 C.2       13 UNK         0.4989 
     24 O         -57.6569  -26.5886   11.6284 O.2       13 UNK        -0.4996 
     25 CA        -56.0437  -25.1904   12.7459 C.3       12 UNK         0.0216 
     26 CB        -57.0329  -24.0163   12.5840 C.3       12 UNK        -0.1964 
     27 N         -55.4857  -25.2266   14.1048 N.am      12 UNK        -0.4276 
     28 C         -56.1426  -25.4866   15.2446 C.2       12 UNK         0.5020 
     29 O         -57.3451  -25.7536   15.2988 O.2       12 UNK        -0.5489 
     30 CA        -55.2987  -25.4582   16.5311 C.3       11 UNK         0.0294 
     31 CB        -56.1004  -25.8522   17.7906 C.3       11 UNK        -0.2019 
     32 N         -54.0656  -26.2471   16.4286 N.am      11 UNK        -0.4493 
     33 C         -53.9495  -27.5732   16.2493 C.2       11 UNK         0.4932 
     34 O         -54.9125  -28.3194   16.0724 O.2       11 UNK        -0.5029 
     35 CA        -52.5311  -28.1884   16.2785 C.3       10 UNK         0.0280 
     36 CB        -52.3452  -29.2266   15.1587 C.3       10 UNK        -0.1976 
     37 N         -51.4532  -27.2011   16.1858 N.am      10 UNK        -0.4242 
     38 C         -50.9924  -26.4365   17.1850 C.2       10 UNK         0.5072 
     39 O         -51.3713  -26.5297   18.3525 O.2       10 UNK        -0.5224 
     40 CA        -49.9909  -25.3315   16.7989 C.3       9 UNK         0.0343 
     41 CB        -48.5473  -25.8578   16.8393 C.3       9 UNK        -0.2003 
     42 N         -50.2730  -24.7501   15.4808 N.am      9 UNK        -0.4272 
     43 C         -51.3871  -24.0665   15.1737 C.2       9 UNK         0.4988 
     44 O         -52.2710  -23.7950   15.9863 O.2       9 UNK        -0.5108 
     45 CA        -51.5787  -23.6788   13.6996 C.3       8 UNK         0.0248 
     46 CB        -50.8084  -22.3923   13.3628 C.3       8 UNK        -0.2001 
     47 N         -51.1770  -24.7632   12.7997 N.am      8 UNK        -0.4140 
     48 C         -51.8696  -25.9043   12.6557 C.2       8 UNK         0.5028 
     49 O         -52.9391  -26.1231   13.2236 O.2       8 UNK        -0.5428 
     50 CA        -51.2591  -27.0033   11.7691 C.3       7 UNK         0.0264 
     51 CB        -51.7423  -26.8611   10.3194 C.3       7 UNK        -0.1988 
     52 N         -49.7958  -27.0465   11.8164 N.am      7 UNK        -0.4454 
     53 C         -49.0965  -27.3197   12.9287 C.2       7 UNK         0.5027 
     54 O         -49.6253  -27.6515   13.9893 O.2       7 UNK        -0.5083 
     55 CA        -47.5659  -27.1220   12.8988 C.3       6 UNK         0.0844 
     56 C56       -46.8035  -28.4674   12.8880 C.3       14 UNK        -0.0967 
     57 S57       -46.7377  -29.2742   11.2494 S.3       14 UNK        -0.2604 
     58 C58       -47.7147  -30.7894   11.5017 C.3       14 UNK         0.0134 
     59 N         -47.0928  -26.2072   11.8559 N.am      6 UNK        -0.4116 
     60 C         -47.4357  -24.9222   11.7158 C.2       5 UNK         0.5034 
     61 O         -48.2199  -24.3475   12.4716 O.2       5 UNK        -0.5045 
     62 CA        -46.8632  -24.1546   10.5134 C.3       5 UNK         0.0224 
     63 CB        -45.6861  -23.2537   10.9319 C.3       5 UNK        -0.1978 
     64 N         -46.5225  -24.9899    9.3523 N.am      5 UNK        -0.4737 
     65 C         -45.5223  -25.8674    9.1838 C.2       4 UNK         0.5027 
     66 O         -44.7222  -26.1757   10.0659 O.2       4 UNK        -0.5211 
     67 CA        -45.4134  -26.5269    7.7962 C.3       4 UNK         0.0297 
     68 CB        -46.2257  -27.8303    7.7611 C.3       4 UNK        -0.1993 
     69 N         -45.8651  -25.6380    6.7206 N.am      4 UNK        -0.4486 
     70 C         -45.2111  -24.5325    6.3316 C.2       3 UNK         0.4961 
     71 O         -44.0945  -24.2141    6.7418 O.2       3 UNK        -0.5105 
     72 CA        -45.9415  -23.6036    5.3489 C.3       3 UNK         0.0299 
     73 CB        -45.7466  -24.0663    3.8955 C.3       3 UNK        -0.1972 
     74 N         -47.3693  -23.5056    5.6630 N.am      3 UNK        -0.4305 
     75 C         -47.8677  -22.7850    6.6799 C.2       2 UNK         0.5006 
     76 O         -47.1832  -22.0663    7.4080 O.2       2 UNK        -0.5106 
     77 CA        -49.3818  -22.8769    6.9449 C.3       2 UNK         0.0296 
     78 CB        -50.1167  -21.7109    6.2640 C.3       2 UNK        -0.2002 
     79 N         -49.9806  -24.1426    6.5144 N.am      2 UNK        -0.4032 
     80 C         -49.7615  -25.3308    7.0970 C.2       1 UNK         0.5000 
     81 O         -49.0354  -25.4785    8.0815 O.2       1 UNK        -0.5238 
     82 H82       -50.2016  -26.6235    2.4142 H         1 UNK         0.0889 
     83 H83       -48.6469  -27.4594    2.4237 H         1 UNK         0.0889 
     84 H84       -48.7000  -25.6959    2.3578 H         1 UNK         0.0889 
     85 H85       -51.1478  -26.5938    4.4402 H         1 UNK         0.3028 
     86 H86       -51.5119  -26.3973    6.6250 H         1 UNK         0.0864 
     87 H87       -49.0512  -28.2097    6.7205 H         1 UNK         0.0720 
     88 H88       -50.0026  -27.8637    8.1392 H         1 UNK         0.0720 
     89 H89       -49.4290  -30.7833    6.8040 H         1 UNK         0.0814 
     90 H90       -50.9801  -31.5774    6.8956 H         1 UNK         0.0814 
     91 H91       -48.2198  -30.6231    8.8434 H         1 UNK         0.1469 
     92 H92       -50.2068  -30.8394   12.6347 H         1 UNK         0.1381 
     93 H93       -52.4973  -30.8727    9.0071 H         1 UNK         0.1206 
     94 H94       -52.5571  -31.0912   12.7798 H         1 UNK         0.0813 
     95 H95       -53.2803  -31.9249   11.4234 H         1 UNK         0.0813 
     96 H96       -54.8156  -30.0114   13.6520 H         1 UNK         0.0638 
     97 H97       -55.5648  -31.0256   12.4392 H         1 UNK         0.0638 
     98 H98       -56.8196  -29.0880   11.5432 H         1 UNK         0.0568 
     99 H99       -58.8222  -28.9427   15.0064 H         1 UNK         0.3450 
    100 H100      -57.6558  -27.7180   14.5716 H         1 UNK         0.3450 
    101 H101      -55.1467  -27.4994   13.3051 H         1 UNK         0.2987 
    102 H102      -55.2025  -25.0054   12.0761 H         1 UNK         0.0766 
    103 H103      -56.5791  -23.0715   12.8831 H         1 UNK         0.0798 
    104 H104      -57.9341  -24.1601   13.1810 H         1 UNK         0.0798 
    105 H105      -57.3460  -23.9094   11.5448 H         1 UNK         0.0798 
    106 H106      -54.4714  -25.1788   14.1421 H         1 UNK         0.3198 
    107 H107      -54.9838  -24.4212   16.6594 H         1 UNK         0.0843 
    108 H108      -56.4893  -26.8688   17.7232 H         1 UNK         0.0831 
    109 H109      -56.9544  -25.1886   17.9318 H         1 UNK         0.0831 
    110 H110      -55.4868  -25.7858   18.6889 H         1 UNK         0.0831 
    111 H111      -53.2122  -25.7081   16.5130 H         1 UNK         0.3133 
    112 H112      -52.4330  -28.7092   17.2329 H         1 UNK         0.0566 
    113 H113      -52.5271  -28.7894   14.1773 H         1 UNK         0.0814 
    114 H114      -51.3367  -29.6405   15.1593 H         1 UNK         0.0814 
    115 H115      -53.0349  -30.0621   15.2803 H         1 UNK         0.0814 
    116 H116      -51.0145  -27.1071   15.2744 H         1 UNK         0.3091 
    117 H117      -50.0810  -24.5319   17.5373 H         1 UNK         0.0702 
    118 H118      -47.8302  -25.0741   16.5940 H         1 UNK         0.0785 
    119 H119      -48.3947  -26.6841   16.1452 H         1 UNK         0.0785 
    120 H120      -48.2976  -26.2240   17.8361 H         1 UNK         0.0785 
    121 H121      -49.6026  -24.9290   14.7466 H         1 UNK         0.2998 
    122 H122      -52.6414  -23.4828   13.5400 H         1 UNK         0.0697 
    123 H123      -49.7388  -22.4944   13.5475 H         1 UNK         0.0825 
    124 H124      -51.1624  -21.5595   13.9719 H         1 UNK         0.0825 
    125 H125      -50.9432  -22.1097   12.3187 H         1 UNK         0.0825 
    126 H126      -50.2714  -24.6715   12.3529 H         1 UNK         0.3029 
    127 H127      -51.6219  -27.9578   12.1517 H         1 UNK         0.0897 
    128 H128      -52.8221  -26.7090   10.2794 H         1 UNK         0.0792 
    129 H129      -51.5366  -27.7706    9.7569 H         1 UNK         0.0792 
    130 H130      -51.2712  -26.0202    9.8101 H         1 UNK         0.0792 
    131 H131      -49.2952  -26.7990   10.9750 H         1 UNK         0.3086 
    132 H132      -47.3239  -26.6351   13.8457 H         1 UNK         0.0583 
    133 H133      -45.7713  -28.2877   13.1928 H         1 UNK         0.1020 
    134 H134      -47.2034  -29.1455   13.6440 H         1 UNK         0.1020 
    135 H135      -47.1548  -31.6275   11.0843 H         1 UNK         0.0694 
    136 H136      -47.8257  -31.0097   12.5638 H         1 UNK         0.0694 
    137 H137      -46.4130  -26.5836   11.2052 H         1 UNK         0.2989 
    138 H138      -47.6657  -23.5004   10.1680 H         1 UNK         0.1055 
    139 H139      -45.9899  -22.5571   11.7145 H         1 UNK         0.0806 
    140 H140      -45.3266  -22.6602   10.0910 H         1 UNK         0.0806 
    141 H141      -44.8466  -23.8303   11.3211 H         1 UNK         0.0806 
    142 H142      -47.2051  -24.9455    8.6008 H         1 UNK         0.3061 
    143 H143      -44.3640  -26.7699    7.6168 H         1 UNK         0.0734 
    144 H144      -46.2455  -28.2673    6.7626 H         1 UNK         0.0832 
    145 H145      -45.7917  -28.5722    8.4321 H         1 UNK         0.0832 
    146 H146      -47.2549  -27.6692    8.0819 H         1 UNK         0.0832 
    147 H147      -46.7473  -25.8653    6.2692 H         1 UNK         0.3156 
    148 H148      -45.5011  -22.6081    5.4404 H         1 UNK         0.0589 
    149 H149      -46.1277  -25.0736    3.7291 H         1 UNK         0.0808 
    150 H150      -46.2470  -23.3975    3.1951 H         1 UNK         0.0808 
    151 H151      -44.6880  -24.0758    3.6330 H         1 UNK         0.0808 
    152 H152      -47.9898  -24.1078    5.1408 H         1 UNK         0.3098 
    153 H153      -49.5283  -22.7873    8.0236 H         1 UNK         0.0720 
    154 H154      -51.1783  -21.7111    6.5122 H         1 UNK         0.0791 
    155 H155      -50.0243  -21.7526    5.1779 H         1 UNK         0.0791 
    156 H156      -49.7110  -20.7515    6.5886 H         1 UNK         0.0791 
    157 H157      -50.5843  -24.1094    5.7053 H         1 UNK         0.3028 
@<TRIPOS>BOND
     1    1    2 1    
     2    1   82 1    
     3    1   83 1    
     4    1   84 1    
     5    2    3 2    
     6    2    4 am   BACKBONE|DICT|INTERRES
     7    4    5 1    
     8    4   85 1    
     9    5    6 1    
    10    5   80 1    
    11    5   86 1    
    12    6    7 1    
    13    6   87 1    
    14    6   88 1    
    15    7    8 1    
    16    8    9 1    
    17    8   89 1    
    18    8   90 1    
    19    9   10 ar   
    20    9   14 ar   
    21   10   11 ar   
    22   10   91 1    
    23   11   12 ar   
    24   11   58 1    
    25   12   13 ar   
    26   12   92 1    
    27   13   14 ar   
    28   13   15 1    
    29   14   93 1    
    30   15   16 1    
    31   15   94 1    
    32   15   95 1    
    33   16   17 1    
    34   17   18 1    
    35   17   96 1    
    36   17   97 1    
    37   18   19 1    
    38   18   22 1    
    39   18   98 1    
    40   19   20 am   BACKBONE|DICT|INTERRES
    41   19   21 2    
    42   20   99 1    
    43   20  100 1    
    44   22   23 am   BACKBONE|DICT|INTERRES
    45   22  101 1    
    46   23   24 2    
    47   23   25 1    
    48   25   26 1    
    49   25   27 1    
    50   25  102 1    
    51   26  103 1    
    52   26  104 1    
    53   26  105 1    
    54   27   28 am   BACKBONE|DICT|INTERRES
    55   27  106 1    
    56   28   29 2    
    57   28   30 1    
    58   30   31 1    
    59   30   32 1    
    60   30  107 1    
    61   31  108 1    
    62   31  109 1    
    63   31  110 1    
    64   32   33 am   BACKBONE|DICT|INTERRES
    65   32  111 1    
    66   33   34 2    
    67   33   35 1    
    68   35   36 1    
    69   35   37 1    
    70   35  112 1    
    71   36  113 1    
    72   36  114 1    
    73   36  115 1    
    74   37   38 am   BACKBONE|DICT|INTERRES
    75   37  116 1    
    76   38   39 2    
    77   38   40 1    
    78   40   41 1    
    79   40   42 1    
    80   40  117 1    
    81   41  118 1    
    82   41  119 1    
    83   41  120 1    
    84   42   43 am   BACKBONE|DICT|INTERRES
    85   42  121 1    
    86   43   44 2    
    87   43   45 1    
    88   45   46 1    
    89   45   47 1    
    90   45  122 1    
    91   46  123 1    
    92   46  124 1    
    93   46  125 1    
    94   47   48 am   BACKBONE|DICT|INTERRES
    95   47  126 1    
    96   48   49 2    
    97   48   50 1    
    98   50   51 1    
    99   50   52 1    
   100   50  127 1    
   101   51  128 1    
   102   51  129 1    
   103   51  130 1    
   104   52   53 am   BACKBONE|DICT|INTERRES
   105   52  131 1    
   106   53   54 2    
   107   53   55 1    
   108   55   56 1    
   109   55   59 1    
   110   55  132 1    
   111   56   57 1    
   112   56  133 1    
   113   56  134 1    
   114   57   58 1    
   115   58  135 1    
   116   58  136 1    
   117   59   60 am   BACKBONE|DICT|INTERRES
   118   59  137 1    
   119   60   61 2    
   120   60   62 1    
   121   62   63 1    
   122   62   64 1    
   123   62  138 1    
   124   63  139 1    
   125   63  140 1    
   126   63  141 1    
   127   64   65 am   BACKBONE|DICT|INTERRES
   128   64  142 1    
   129   65   66 2    
   130   65   67 1    
   131   67   68 1    
   132   67   69 1    
   133   67  143 1    
   134   68  144 1    
   135   68  145 1    
   136   68  146 1    
   137   69   70 am   BACKBONE|DICT|INTERRES
   138   69  147 1    
   139   70   71 2    
   140   70   72 1    
   141   72   73 1    
   142   72   74 1    
   143   72  148 1    
   144   73  149 1    
   145   73  150 1    
   146   73  151 1    
   147   74   75 am   BACKBONE|DICT|INTERRES
   148   74  152 1    
   149   75   76 2    
   150   75   77 1    
   151   77   78 1    
   152   77   79 1    
   153   77  153 1    
   154   78  154 1    
   155   78  155 1    
   156   78  156 1    
   157   79   80 am   BACKBONE|DICT|INTERRES
   158   79  157 1    
   159   80   81 2    
@<TRIPOS>SUBSTRUCTURE
     1 UNK         1 GROUP             0       ****    0 ROOT    
