@<TRIPOS>MOLECULE
3R207
157   159    1
SMALL
USER_CHARGES


@<TRIPOS>ATOM
      1 CA        -47.9555  -31.3095    3.4658 C.3       0 UNK        -0.1975 
      2 C         -48.5846  -29.9413    3.2487 C.2       0 UNK         0.4852 
      3 O         -48.4162  -29.3531    2.1799 O.2       0 UNK        -0.5216 
      4 N         -49.3070  -29.4309    4.2552 N.am      1 UNK        -0.4461 
      5 CA        -49.9997  -28.1341    4.2230 C.3       1 UNK         0.0864 
      6 C6        -51.0373  -28.0058    5.3638 C.3       14 UNK        -0.0898 
      7 S7        -52.2696  -29.3529    5.3704 S.3       14 UNK        -0.2598 
      8 C8        -53.6822  -28.5509    6.1978 C.3       14 UNK         0.0286 
      9 C9        -53.2902  -27.9677    7.5483 C.ar      14 UNK        -0.0844 
     10 C10       -53.1619  -26.5869    7.7065 C.ar      14 UNK        -0.0881 
     11 C11       -52.7545  -26.0460    8.9275 C.ar      14 UNK        -0.0643 
     12 C12       -52.4809  -26.9008   10.0032 C.ar      14 UNK        -0.0930 
     13 C13       -52.6258  -28.2904    9.8663 C.ar      14 UNK        -0.0827 
     14 C14       -53.0321  -28.8086    8.6326 C.ar      14 UNK        -0.1249 
     15 C15       -52.3372  -29.2915   10.9878 C.3       14 UNK         0.0141 
     16 S16       -52.0887  -28.6021   12.6592 S.3       14 UNK        -0.2313 
     17 C17       -51.8686  -30.1468   13.6033 C.3       14 UNK        -0.0915 
     18 CA        -53.1984  -30.6235   14.2603 C.3       13 UNK         0.0968 
     19 C         -53.2189  -32.1494   14.5924 C.2       13 UNK         0.5732 
     20 N         -53.9899  -32.5984   15.5763 N.am      13 UNK        -0.7310 
     21 O         -52.5621  -32.9496   13.9300 O.2       13 UNK        -0.5035 
     22 N         -53.6401  -29.7473   15.3624 N.am      13 UNK        -0.4233 
     23 C         -53.0593  -29.6354   16.5685 C.2       13 UNK         0.4989 
     24 O         -52.0240  -30.2246   16.8821 O.2       13 UNK        -0.4996 
     25 CA        -53.7586  -28.7484   17.6176 C.3       12 UNK         0.0216 
     26 CB        -52.7699  -28.0397   18.5633 C.3       12 UNK        -0.1964 
     27 N         -54.6442  -27.7579   16.9992 N.am      12 UNK        -0.4276 
     28 C         -55.9799  -27.8662   16.9522 C.2       12 UNK         0.5020 
     29 O         -56.6121  -28.7858   17.4737 O.2       12 UNK        -0.5489 
     30 CA        -56.7511  -26.7902   16.1699 C.3       11 UNK         0.0294 
     31 CB        -57.0841  -25.5992   17.0827 C.3       11 UNK        -0.2019 
     32 N         -56.0573  -26.3011   14.9776 N.am      11 UNK        -0.4493 
     33 C         -55.6553  -27.0282   13.9279 C.2       11 UNK         0.4932 
     34 O         -55.8082  -28.2470   13.8462 O.2       11 UNK        -0.5029 
     35 CA        -54.9322  -26.2797   12.7907 C.3       10 UNK         0.0280 
     36 CB        -55.9300  -25.6823   11.7801 C.3       10 UNK        -0.1976 
     37 N         -53.9533  -25.2834   13.2585 N.am      10 UNK        -0.4242 
     38 C         -54.1818  -24.1331   13.9111 C.2       10 UNK         0.5072 
     39 O         -55.3118  -23.7084   14.1603 O.2       10 UNK        -0.5224 
     40 CA        -52.9558  -23.3417   14.4064 C.3       9 UNK         0.0343 
     41 CB        -53.2796  -22.4877   15.6509 C.3       9 UNK        -0.2003 
     42 N         -51.7492  -24.1426   14.6561 N.am      9 UNK        -0.4272 
     43 C         -51.6045  -25.1826   15.4955 C.2       9 UNK         0.4988 
     44 O         -52.5513  -25.7180   16.0756 O.2       9 UNK        -0.5108 
     45 CA        -50.1718  -25.7126   15.7366 C.3       8 UNK         0.0248 
     46 CB        -50.0840  -27.2380   15.5734 C.3       8 UNK        -0.2001 
     47 N         -49.1747  -25.0955   14.8565 N.am      8 UNK        -0.4140 
     48 C         -48.4901  -23.9713   15.1230 C.2       8 UNK         0.5028 
     49 O         -48.5457  -23.3768   16.1996 O.2       8 UNK        -0.5428 
     50 CA        -47.6358  -23.3772   13.9811 C.3       7 UNK         0.0264 
     51 CB        -46.1741  -23.8336   14.1053 C.3       7 UNK        -0.1988 
     52 N         -48.1377  -23.7220   12.6467 N.am      7 UNK        -0.4454 
     53 C         -49.3533  -23.3958   12.1836 C.2       7 UNK         0.5027 
     54 O         -50.0996  -22.6091   12.7657 O.2       7 UNK        -0.5083 
     55 CA        -49.8887  -24.1303   10.9370 C.3       6 UNK         0.0844 
     56 C56       -50.2613  -23.1422    9.8080 C.3       14 UNK        -0.0967 
     57 S57       -51.0229  -23.9666    8.3699 S.3       14 UNK        -0.2604 
     58 C58       -52.6126  -24.5364    9.0595 C.3       14 UNK         0.0134 
     59 N         -49.0455  -25.2357   10.4725 N.am      6 UNK        -0.4116 
     60 C         -48.8314  -26.3785   11.1380 C.2       5 UNK         0.5034 
     61 O         -49.2775  -26.6064   12.2616 O.2       5 UNK        -0.5045 
     62 CA        -47.9052  -27.3958   10.4586 C.3       5 UNK         0.0224 
     63 CB        -48.6682  -28.1978    9.3910 C.3       5 UNK        -0.1978 
     64 N         -46.7495  -26.7234    9.8563 N.am      5 UNK        -0.4737 
     65 C         -45.7170  -26.2457   10.5696 C.2       4 UNK         0.5027 
     66 O         -45.5856  -26.4318   11.7785 O.2       4 UNK        -0.5211 
     67 CA        -44.6684  -25.3914    9.8325 C.3       4 UNK         0.0297 
     68 CB        -43.5120  -26.2735    9.3358 C.3       4 UNK        -0.1993 
     69 N         -45.2186  -24.6358    8.7057 N.am      4 UNK        -0.4486 
     70 C         -46.1520  -23.6770    8.7953 C.2       3 UNK         0.4961 
     71 O         -46.5892  -23.2452    9.8613 O.2       3 UNK        -0.5105 
     72 CA        -46.7320  -23.1383    7.4724 C.3       3 UNK         0.0299 
     73 CB        -46.0859  -21.7909    7.1141 C.3       3 UNK        -0.1972 
     74 N         -46.6048  -24.0583    6.3334 N.am      3 UNK        -0.4305 
     75 C         -47.1286  -25.2909    6.2761 C.2       2 UNK         0.5006 
     76 O         -47.7569  -25.8114    7.2013 O.2       2 UNK        -0.5106 
     77 CA        -46.8107  -26.1050    5.0131 C.3       2 UNK         0.0296 
     78 CB        -45.4335  -26.7769    5.1485 C.3       2 UNK        -0.2002 
     79 N         -47.8172  -27.1408    4.7897 N.am      2 UNK        -0.4032 
     80 C         -49.0314  -26.9305    4.2629 C.2       1 UNK         0.5000 
     81 O         -49.4033  -25.8418    3.8192 O.2       1 UNK        -0.5238 
     82 H82       -48.1875  -31.7138    4.4509 H         1 UNK         0.0889 
     83 H83       -46.8718  -31.2432    3.3728 H         1 UNK         0.0889 
     84 H84       -48.3197  -32.0124    2.7170 H         1 UNK         0.0889 
     85 H85       -49.4419  -29.9729    5.0972 H         1 UNK         0.3028 
     86 H86       -50.5371  -28.0727    3.2740 H         1 UNK         0.0864 
     87 H87       -51.5678  -27.0557    5.2748 H         1 UNK         0.0720 
     88 H88       -50.5440  -27.9904    6.3383 H         1 UNK         0.0720 
     89 H89       -54.4782  -29.2840    6.3351 H         1 UNK         0.0814 
     90 H90       -54.0882  -27.7776    5.5437 H         1 UNK         0.0814 
     91 H91       -53.3575  -25.9280    6.8715 H         1 UNK         0.1469 
     92 H92       -52.1519  -26.4788   10.9401 H         1 UNK         0.1381 
     93 H93       -53.1292  -29.8785    8.5053 H         1 UNK         0.1206 
     94 H94       -51.4523  -29.8672   10.7148 H         1 UNK         0.0813 
     95 H95       -53.1640  -30.0016   11.0399 H         1 UNK         0.0813 
     96 H96       -51.4644  -30.8973   12.9226 H         1 UNK         0.0638 
     97 H97       -51.0961  -29.9912   14.3570 H         1 UNK         0.0638 
     98 H98       -53.9765  -30.5296   13.5022 H         1 UNK         0.0568 
     99 H99       -54.5537  -31.9634   16.1175 H         1 UNK         0.3450 
    100 H100      -54.0073  -33.5860   15.7758 H         1 UNK         0.3450 
    101 H101      -54.4878  -29.2253   15.1747 H         1 UNK         0.2987 
    102 H102      -54.3409  -29.4344   18.2358 H         1 UNK         0.0766 
    103 H103      -52.1323  -28.7584   19.0795 H         1 UNK         0.0798 
    104 H104      -53.2991  -27.4743   19.3303 H         1 UNK         0.0798 
    105 H105      -52.1173  -27.3471   18.0356 H         1 UNK         0.0798 
    106 H106      -54.1864  -26.9741   16.5416 H         1 UNK         0.3198 
    107 H107      -57.6887  -27.2395   15.8359 H         1 UNK         0.0843 
    108 H108      -57.7178  -24.8731   16.5731 H         1 UNK         0.0831 
    109 H109      -56.1828  -25.0823   17.4156 H         1 UNK         0.0831 
    110 H110      -57.6211  -25.9275   17.9738 H         1 UNK         0.0831 
    111 H111      -55.8930  -25.2983   14.9183 H         1 UNK         0.3133 
    112 H112      -54.3603  -27.0277   12.2457 H         1 UNK         0.0566 
    113 H113      -56.5672  -26.4623   11.3615 H         1 UNK         0.0814 
    114 H114      -56.5867  -24.9406   12.2350 H         1 UNK         0.0814 
    115 H115      -55.4113  -25.2082   10.9467 H         1 UNK         0.0814 
    116 H116      -52.9879  -25.5681   13.1765 H         1 UNK         0.3091 
    117 H117      -52.7022  -22.6569   13.5963 H         1 UNK         0.0702 
    118 H118      -52.4125  -21.9101   15.9713 H         1 UNK         0.0785 
    119 H119      -53.5997  -23.1062   16.4904 H         1 UNK         0.0785 
    120 H120      -54.0803  -21.7760   15.4456 H         1 UNK         0.0785 
    121 H121      -50.9160  -23.7757   14.2099 H         1 UNK         0.2998 
    122 H122      -49.9296  -25.4791   16.7752 H         1 UNK         0.0697 
    123 H123      -49.1050  -27.6108   15.8741 H         1 UNK         0.0825 
    124 H124      -50.8230  -27.7533   16.1834 H         1 UNK         0.0825 
    125 H125      -50.2480  -27.5402   14.5414 H         1 UNK         0.0825 
    126 H126      -49.0665  -25.5312   13.9444 H         1 UNK         0.3029 
    127 H127      -47.6681  -22.2898   14.0772 H         1 UNK         0.0897 
    128 H128      -45.5510  -23.3898   13.3282 H         1 UNK         0.0792 
    129 H129      -45.7538  -23.5374   15.0674 H         1 UNK         0.0792 
    130 H130      -46.0828  -24.9179   14.0298 H         1 UNK         0.0792 
    131 H131      -47.5653  -24.3402   12.0882 H         1 UNK         0.3086 
    132 H132      -50.8150  -24.5895   11.2824 H         1 UNK         0.0583 
    133 H133      -50.9546  -22.3803   10.1706 H         1 UNK         0.1020 
    134 H134      -49.3751  -22.6040    9.4677 H         1 UNK         0.1020 
    135 H135      -52.7286  -24.2307   10.0996 H         1 UNK         0.0694 
    136 H136      -53.4220  -24.0449    8.5176 H         1 UNK         0.0694 
    137 H137      -48.6394  -25.1308    9.5530 H         1 UNK         0.2989 
    138 H138      -47.5513  -28.0925   11.2222 H         1 UNK         0.1055 
    139 H139      -49.4768  -28.7699    9.8458 H         1 UNK         0.0806 
    140 H140      -49.1196  -27.5529    8.6360 H         1 UNK         0.0806 
    141 H141      -48.0155  -28.9065    8.8817 H         1 UNK         0.0806 
    142 H142      -46.8224  -26.4934    8.8701 H         1 UNK         0.3061 
    143 H143      -44.2689  -24.6719   10.5505 H         1 UNK         0.0734 
    144 H144      -42.7192  -25.6752    8.8865 H         1 UNK         0.0832 
    145 H145      -43.0659  -26.8307   10.1609 H         1 UNK         0.0832 
    146 H146      -43.8468  -27.0014    8.5954 H         1 UNK         0.0832 
    147 H147      -44.9145  -24.9107    7.7839 H         1 UNK         0.3156 
    148 H148      -47.7988  -22.9720    7.6331 H         1 UNK         0.0589 
    149 H149      -46.5559  -21.3446    6.2375 H         1 UNK         0.0808 
    150 H150      -46.1919  -21.0775    7.9329 H         1 UNK         0.0808 
    151 H151      -45.0196  -21.8952    6.9095 H         1 UNK         0.0808 
    152 H152      -46.0850  -23.7170    5.5369 H         1 UNK         0.3098 
    153 H153      -46.7955  -25.4340    4.1514 H         1 UNK         0.0720 
    154 H154      -44.6422  -26.0357    5.2669 H         1 UNK         0.0791 
    155 H155      -45.3901  -27.4422    6.0122 H         1 UNK         0.0791 
    156 H156      -45.1914  -27.3640    4.2621 H         1 UNK         0.0791 
    157 H157      -47.6154  -28.0571    5.1604 H         1 UNK         0.3028 
@<TRIPOS>BOND
     1    1    2 1    
     2    1   82 1    
     3    1   83 1    
     4    1   84 1    
     5    2    3 2    
     6    2    4 am   BACKBONE|DICT|INTERRES
     7    4    5 1    
     8    4   85 1    
     9    5    6 1    
    10    5   80 1    
    11    5   86 1    
    12    6    7 1    
    13    6   87 1    
    14    6   88 1    
    15    7    8 1    
    16    8    9 1    
    17    8   89 1    
    18    8   90 1    
    19    9   10 ar   
    20    9   14 ar   
    21   10   11 ar   
    22   10   91 1    
    23   11   12 ar   
    24   11   58 1    
    25   12   13 ar   
    26   12   92 1    
    27   13   14 ar   
    28   13   15 1    
    29   14   93 1    
    30   15   16 1    
    31   15   94 1    
    32   15   95 1    
    33   16   17 1    
    34   17   18 1    
    35   17   96 1    
    36   17   97 1    
    37   18   19 1    
    38   18   22 1    
    39   18   98 1    
    40   19   20 am   BACKBONE|DICT|INTERRES
    41   19   21 2    
    42   20   99 1    
    43   20  100 1    
    44   22   23 am   BACKBONE|DICT|INTERRES
    45   22  101 1    
    46   23   24 2    
    47   23   25 1    
    48   25   26 1    
    49   25   27 1    
    50   25  102 1    
    51   26  103 1    
    52   26  104 1    
    53   26  105 1    
    54   27   28 am   BACKBONE|DICT|INTERRES
    55   27  106 1    
    56   28   29 2    
    57   28   30 1    
    58   30   31 1    
    59   30   32 1    
    60   30  107 1    
    61   31  108 1    
    62   31  109 1    
    63   31  110 1    
    64   32   33 am   BACKBONE|DICT|INTERRES
    65   32  111 1    
    66   33   34 2    
    67   33   35 1    
    68   35   36 1    
    69   35   37 1    
    70   35  112 1    
    71   36  113 1    
    72   36  114 1    
    73   36  115 1    
    74   37   38 am   BACKBONE|DICT|INTERRES
    75   37  116 1    
    76   38   39 2    
    77   38   40 1    
    78   40   41 1    
    79   40   42 1    
    80   40  117 1    
    81   41  118 1    
    82   41  119 1    
    83   41  120 1    
    84   42   43 am   BACKBONE|DICT|INTERRES
    85   42  121 1    
    86   43   44 2    
    87   43   45 1    
    88   45   46 1    
    89   45   47 1    
    90   45  122 1    
    91   46  123 1    
    92   46  124 1    
    93   46  125 1    
    94   47   48 am   BACKBONE|DICT|INTERRES
    95   47  126 1    
    96   48   49 2    
    97   48   50 1    
    98   50   51 1    
    99   50   52 1    
   100   50  127 1    
   101   51  128 1    
   102   51  129 1    
   103   51  130 1    
   104   52   53 am   BACKBONE|DICT|INTERRES
   105   52  131 1    
   106   53   54 2    
   107   53   55 1    
   108   55   56 1    
   109   55   59 1    
   110   55  132 1    
   111   56   57 1    
   112   56  133 1    
   113   56  134 1    
   114   57   58 1    
   115   58  135 1    
   116   58  136 1    
   117   59   60 am   BACKBONE|DICT|INTERRES
   118   59  137 1    
   119   60   61 2    
   120   60   62 1    
   121   62   63 1    
   122   62   64 1    
   123   62  138 1    
   124   63  139 1    
   125   63  140 1    
   126   63  141 1    
   127   64   65 am   BACKBONE|DICT|INTERRES
   128   64  142 1    
   129   65   66 2    
   130   65   67 1    
   131   67   68 1    
   132   67   69 1    
   133   67  143 1    
   134   68  144 1    
   135   68  145 1    
   136   68  146 1    
   137   69   70 am   BACKBONE|DICT|INTERRES
   138   69  147 1    
   139   70   71 2    
   140   70   72 1    
   141   72   73 1    
   142   72   74 1    
   143   72  148 1    
   144   73  149 1    
   145   73  150 1    
   146   73  151 1    
   147   74   75 am   BACKBONE|DICT|INTERRES
   148   74  152 1    
   149   75   76 2    
   150   75   77 1    
   151   77   78 1    
   152   77   79 1    
   153   77  153 1    
   154   78  154 1    
   155   78  155 1    
   156   78  156 1    
   157   79   80 am   BACKBONE|DICT|INTERRES
   158   79  157 1    
   159   80   81 2    
@<TRIPOS>SUBSTRUCTURE
     1 UNK         1 GROUP             0       ****    0 ROOT    
