@<TRIPOS>MOLECULE
3R207
157   159    1
SMALL
USER_CHARGES


@<TRIPOS>ATOM
      1 CA        -45.6630  -26.1567   11.1613 C.3       0 UNK        -0.1975 
      2 C         -46.3177  -26.6668    9.8885 C.2       0 UNK         0.4852 
      3 O         -47.2872  -26.0732    9.4174 O.2       0 UNK        -0.5216 
      4 N         -45.7764  -27.7523    9.3214 N.am      1 UNK        -0.4461 
      5 CA        -46.2271  -28.4651    8.1134 C.3       1 UNK         0.0864 
      6 C6        -47.7060  -28.9338    8.1604 C.3       14 UNK        -0.0898 
      7 S7        -47.9910  -30.0675    9.5618 S.3       14 UNK        -0.2598 
      8 C8        -49.1815  -31.2526    8.8633 C.3       14 UNK         0.0286 
      9 C9        -50.6126  -30.7982    9.1015 C.ar      14 UNK        -0.0844 
     10 C10       -51.2204  -29.8784    8.2420 C.ar      14 UNK        -0.0881 
     11 C11       -52.5328  -29.4551    8.4739 C.ar      14 UNK        -0.0643 
     12 C12       -53.2471  -29.9847    9.5538 C.ar      14 UNK        -0.0930 
     13 C13       -52.6455  -30.8931   10.4277 C.ar      14 UNK        -0.0827 
     14 C14       -51.3288  -31.2979   10.1930 C.ar      14 UNK        -0.1249 
     15 C15       -53.4127  -31.4432   11.6219 C.3       14 UNK         0.0141 
     16 S16       -53.6063  -30.1990   12.9418 S.3       14 UNK        -0.2313 
     17 C17       -55.2863  -29.5458   12.6331 C.3       14 UNK        -0.0915 
     18 CA        -55.3222  -28.0666   12.1617 C.3       13 UNK         0.0968 
     19 C         -56.7921  -27.6210   11.8956 C.2       13 UNK         0.5732 
     20 N         -57.3661  -26.6912   12.6523 N.am      13 UNK        -0.7310 
     21 O         -57.4258  -28.1351   10.9771 O.2       13 UNK        -0.5035 
     22 N         -54.5659  -27.1943   13.0676 N.am      13 UNK        -0.4233 
     23 C         -54.2371  -25.9193   12.8265 C.2       13 UNK         0.4989 
     24 O         -54.4898  -25.3310   11.7739 O.2       13 UNK        -0.4996 
     25 CA        -53.5371  -25.1808   13.9845 C.3       12 UNK         0.0216 
     26 CB        -53.5348  -23.6484   13.8082 C.3       12 UNK        -0.1964 
     27 N         -54.0692  -25.5513   15.3045 N.am      12 UNK        -0.4276 
     28 C         -55.3462  -25.4690   15.7188 C.2       12 UNK         0.5020 
     29 O         -56.2669  -25.0615   15.0084 O.2       12 UNK        -0.5489 
     30 CA        -55.6836  -25.9691   17.1389 C.3       11 UNK         0.0294 
     31 CB        -56.5643  -27.2287   17.0631 C.3       11 UNK        -0.2019 
     32 N         -54.5082  -26.2700   17.9590 N.am      11 UNK        -0.4493 
     33 C         -53.6843  -25.3612   18.4984 C.2       11 UNK         0.4932 
     34 O         -53.8815  -24.1472   18.4528 O.2       11 UNK        -0.5029 
     35 CA        -52.4051  -25.8940   19.1752 C.3       10 UNK         0.0280 
     36 CB        -52.5775  -25.9136   20.7027 C.3       10 UNK        -0.1976 
     37 N         -51.9768  -27.2256   18.7198 N.am      10 UNK        -0.4242 
     38 C         -51.6536  -27.5499   17.4601 C.2       10 UNK         0.5072 
     39 O         -51.7212  -26.7662   16.5073 O.2       10 UNK        -0.5224 
     40 CA        -51.2423  -29.0055   17.2143 C.3       9 UNK         0.0343 
     41 CB        -52.4723  -29.9308   17.1837 C.3       9 UNK        -0.2003 
     42 N         -50.5622  -29.0647   15.9284 N.am      9 UNK        -0.4272 
     43 C         -49.5724  -29.8948   15.5838 C.2       9 UNK         0.4988 
     44 O         -49.1345  -30.7825   16.3167 O.2       9 UNK        -0.5108 
     45 CA        -48.9661  -29.7053   14.1814 C.3       8 UNK         0.0248 
     46 CB        -49.5211  -30.7638   13.2170 C.3       8 UNK        -0.2001 
     47 N         -49.2324  -28.3724   13.6337 N.am      8 UNK        -0.4140 
     48 C         -48.5766  -27.2555   13.9724 C.2       8 UNK         0.5028 
     49 O         -47.5807  -27.2474   14.6978 O.2       8 UNK        -0.5428 
     50 CA        -49.1408  -25.9300   13.4202 C.3       7 UNK         0.0264 
     51 CB        -48.2299  -24.7194   13.6966 C.3       7 UNK        -0.1988 
     52 N         -49.4482  -25.9812   11.9877 N.am      7 UNK        -0.4454 
     53 C         -50.5413  -26.5392   11.4475 C.2       7 UNK         0.5027 
     54 O         -51.3496  -27.1860   12.1142 O.2       7 UNK        -0.5083 
     55 CA        -50.7432  -26.3696    9.9242 C.3       6 UNK         0.0844 
     56 C56       -52.2276  -26.4891    9.4788 C.3       14 UNK        -0.0967 
     57 S57       -52.3475  -26.7804    7.6770 S.3       14 UNK        -0.2604 
     58 C58       -53.1772  -28.4046    7.5786 C.3       14 UNK         0.0134 
     59 N         -50.1024  -25.1555    9.3992 N.am      6 UNK        -0.4116 
     60 C         -50.3996  -23.8869    9.7229 C.2       5 UNK         0.5034 
     61 O         -51.2205  -23.5592   10.5796 O.2       5 UNK        -0.5045 
     62 CA        -49.6629  -22.7929    8.9366 C.3       5 UNK         0.0224 
     63 CB        -48.2487  -22.5643    9.4950 C.3       5 UNK        -0.1978 
     64 N         -49.5951  -23.0977    7.5048 N.am      5 UNK        -0.4737 
     65 C         -50.6548  -23.0567    6.6794 C.2       4 UNK         0.5027 
     66 O         -51.7818  -22.7205    7.0464 O.2       4 UNK        -0.5211 
     67 CA        -50.4278  -23.4544    5.2037 C.3       4 UNK         0.0297 
     68 CB        -51.4368  -22.7893    4.2430 C.3       4 UNK        -0.1993 
     69 N         -49.0499  -23.2427    4.7451 N.am      4 UNK        -0.4486 
     70 C         -48.3661  -22.0880    4.7133 C.2       3 UNK         0.4961 
     71 O         -48.8674  -20.9870    4.9457 O.2       3 UNK        -0.5105 
     72 CA        -46.8588  -22.1835    4.3884 C.3       3 UNK         0.0299 
     73 CB        -46.0396  -21.1155    5.1445 C.3       3 UNK        -0.1972 
     74 N         -46.2649  -23.5155    4.5978 N.am      3 UNK        -0.4305 
     75 C         -46.2337  -24.2247    5.7370 C.2       2 UNK         0.5006 
     76 O         -46.7774  -23.8761    6.7878 O.2       2 UNK        -0.5106 
     77 CA        -45.4746  -25.5528    5.6754 C.3       2 UNK         0.0296 
     78 CB        -43.9529  -25.3206    5.7159 C.3       2 UNK        -0.2002 
     79 N         -45.8676  -26.3962    6.8011 N.am      2 UNK        -0.4032 
     80 C         -45.8974  -27.7332    6.7942 C.2       1 UNK         0.5000 
     81 O         -45.6335  -28.4071    5.7959 O.2       1 UNK        -0.5238 
     82 H82       -46.1514  -26.5921   12.0321 H         1 UNK         0.0889 
     83 H83       -45.7448  -25.0718   11.2215 H         1 UNK         0.0889 
     84 H84       -44.6050  -26.4154   11.1977 H         1 UNK         0.0889 
     85 H85       -44.9660  -28.1644    9.7627 H         1 UNK         0.3028 
     86 H86       -45.6137  -29.3677    8.0869 H         1 UNK         0.0864 
     87 H87       -47.9620  -29.4480    7.2326 H         1 UNK         0.0720 
     88 H88       -48.3926  -28.0907    8.2346 H         1 UNK         0.0720 
     89 H89       -49.0176  -32.2225    9.3353 H         1 UNK         0.0814 
     90 H90       -49.0007  -31.4070    7.7988 H         1 UNK         0.0814 
     91 H91       -50.6666  -29.4723    7.4067 H         1 UNK         0.1469 
     92 H92       -54.2669  -29.6745    9.7293 H         1 UNK         0.1381 
     93 H93       -50.8572  -32.0036   10.8630 H         1 UNK         0.1206 
     94 H94       -52.8831  -32.2990   12.0431 H         1 UNK         0.0813 
     95 H95       -54.3807  -31.8274   11.2990 H         1 UNK         0.0813 
     96 H96       -55.8482  -29.6522   13.5629 H         1 UNK         0.0638 
     97 H97       -55.7941  -30.1834   11.9080 H         1 UNK         0.0638 
     98 H98       -54.8183  -28.0106   11.1968 H         1 UNK         0.0568 
     99 H99       -56.8570  -26.2278   13.3965 H         1 UNK         0.3450 
    100 H100      -58.3163  -26.4210   12.4564 H         1 UNK         0.3450 
    101 H101      -54.3010  -27.6025   13.9502 H         1 UNK         0.2987 
    102 H102      -52.4993  -25.5144   13.9709 H         1 UNK         0.0766 
    103 H103      -53.0309  -23.3638   12.8832 H         1 UNK         0.0798 
    104 H104      -53.0099  -23.1563   14.6269 H         1 UNK         0.0798 
    105 H105      -54.5473  -23.2457   13.7664 H         1 UNK         0.0798 
    106 H106      -53.3765  -25.9308   15.9456 H         1 UNK         0.3198 
    107 H107      -56.2538  -25.1786   17.6319 H         1 UNK         0.0843 
    108 H108      -56.0479  -28.0558   16.5741 H         1 UNK         0.0831 
    109 H109      -57.4762  -27.0353   16.4960 H         1 UNK         0.0831 
    110 H110      -56.8698  -27.5609   18.0554 H         1 UNK         0.0831 
    111 H111      -54.2708  -27.2447   18.0691 H         1 UNK         0.3133 
    112 H112      -51.6016  -25.1956   18.9324 H         1 UNK         0.0566 
    113 H113      -51.6492  -26.1864   21.2050 H         1 UNK         0.0814 
    114 H114      -53.3493  -26.6191   21.0134 H         1 UNK         0.0814 
    115 H115      -52.8667  -24.9301   21.0762 H         1 UNK         0.0814 
    116 H116      -51.9045  -27.9386   19.4322 H         1 UNK         0.3091 
    117 H117      -50.5597  -29.3137   18.0091 H         1 UNK         0.0702 
    118 H118      -52.1825  -30.9645   16.9938 H         1 UNK         0.0785 
    119 H119      -53.1785  -29.6371   16.4055 H         1 UNK         0.0785 
    120 H120      -53.0049  -29.9160   18.1353 H         1 UNK         0.0785 
    121 H121      -50.8248  -28.3219   15.2933 H         1 UNK         0.2998 
    122 H122      -47.8861  -29.8452   14.2621 H         1 UNK         0.0697 
    123 H123      -50.5985  -30.6615   13.0850 H         1 UNK         0.0825 
    124 H124      -49.3307  -31.7719   13.5873 H         1 UNK         0.0825 
    125 H125      -49.0548  -30.6868   12.2360 H         1 UNK         0.0825 
    126 H126      -50.0487  -28.2700   13.0360 H         1 UNK         0.3029 
    127 H127      -50.0733  -25.7531   13.9607 H         1 UNK         0.0897 
    128 H128      -47.2581  -24.8194   13.2155 H         1 UNK         0.0792 
    129 H129      -48.0519  -24.6013   14.7664 H         1 UNK         0.0792 
    130 H130      -48.6850  -23.7934   13.3444 H         1 UNK         0.0792 
    131 H131      -48.7925  -25.5352   11.3602 H         1 UNK         0.3086 
    132 H132      -50.2003  -27.2090    9.4887 H         1 UNK         0.0583 
    133 H133      -52.7410  -27.2884   10.0123 H         1 UNK         0.1020 
    134 H134      -52.7811  -25.5821    9.7245 H         1 UNK         0.1020 
    135 H135      -54.2295  -28.2720    7.8348 H         1 UNK         0.0694 
    136 H136      -53.1551  -28.7513    6.5446 H         1 UNK         0.0694 
    137 H137      -49.3445  -25.3131    8.7478 H         1 UNK         0.2989 
    138 H138      -50.2266  -21.8651    9.0590 H         1 UNK         0.1055 
    139 H139      -47.6177  -23.4457    9.3810 H         1 UNK         0.0806 
    140 H140      -48.2825  -22.3218   10.5579 H         1 UNK         0.0806 
    141 H141      -47.7537  -21.7361    8.9876 H         1 UNK         0.0806 
    142 H142      -48.6859  -23.3651    7.1374 H         1 UNK         0.3061 
    143 H143      -50.5977  -24.5314    5.1611 H         1 UNK         0.0734 
    144 H144      -51.3822  -21.7013    4.2881 H         1 UNK         0.0832 
    145 H145      -51.2625  -23.0924    3.2108 H         1 UNK         0.0832 
    146 H146      -52.4600  -23.0725    4.4931 H         1 UNK         0.0832 
    147 H147      -48.5320  -24.0827    4.5293 H         1 UNK         0.3156 
    148 H148      -46.7692  -21.9751    3.3213 H         1 UNK         0.0589 
    149 H149      -44.9803  -21.1770    4.8954 H         1 UNK         0.0808 
    150 H150      -46.3713  -20.1085    4.8882 H         1 UNK         0.0808 
    151 H151      -46.1369  -21.2243    6.2254 H         1 UNK         0.0808 
    152 H152      -45.8050  -23.9092    3.7876 H         1 UNK         0.3098 
    153 H153      -45.7428  -26.0470    4.7391 H         1 UNK         0.0720 
    154 H154      -43.6240  -24.6943    4.8857 H         1 UNK         0.0791 
    155 H155      -43.4064  -26.2612    5.6444 H         1 UNK         0.0791 
    156 H156      -43.6475  -24.8266    6.6393 H         1 UNK         0.0791 
    157 H157      -46.1998  -25.9019    7.6247 H         1 UNK         0.3028 
@<TRIPOS>BOND
     1    1    2 1    
     2    1   82 1    
     3    1   83 1    
     4    1   84 1    
     5    2    3 2    
     6    2    4 am   BACKBONE|DICT|INTERRES
     7    4    5 1    
     8    4   85 1    
     9    5    6 1    
    10    5   80 1    
    11    5   86 1    
    12    6    7 1    
    13    6   87 1    
    14    6   88 1    
    15    7    8 1    
    16    8    9 1    
    17    8   89 1    
    18    8   90 1    
    19    9   10 ar   
    20    9   14 ar   
    21   10   11 ar   
    22   10   91 1    
    23   11   12 ar   
    24   11   58 1    
    25   12   13 ar   
    26   12   92 1    
    27   13   14 ar   
    28   13   15 1    
    29   14   93 1    
    30   15   16 1    
    31   15   94 1    
    32   15   95 1    
    33   16   17 1    
    34   17   18 1    
    35   17   96 1    
    36   17   97 1    
    37   18   19 1    
    38   18   22 1    
    39   18   98 1    
    40   19   20 am   BACKBONE|DICT|INTERRES
    41   19   21 2    
    42   20   99 1    
    43   20  100 1    
    44   22   23 am   BACKBONE|DICT|INTERRES
    45   22  101 1    
    46   23   24 2    
    47   23   25 1    
    48   25   26 1    
    49   25   27 1    
    50   25  102 1    
    51   26  103 1    
    52   26  104 1    
    53   26  105 1    
    54   27   28 am   BACKBONE|DICT|INTERRES
    55   27  106 1    
    56   28   29 2    
    57   28   30 1    
    58   30   31 1    
    59   30   32 1    
    60   30  107 1    
    61   31  108 1    
    62   31  109 1    
    63   31  110 1    
    64   32   33 am   BACKBONE|DICT|INTERRES
    65   32  111 1    
    66   33   34 2    
    67   33   35 1    
    68   35   36 1    
    69   35   37 1    
    70   35  112 1    
    71   36  113 1    
    72   36  114 1    
    73   36  115 1    
    74   37   38 am   BACKBONE|DICT|INTERRES
    75   37  116 1    
    76   38   39 2    
    77   38   40 1    
    78   40   41 1    
    79   40   42 1    
    80   40  117 1    
    81   41  118 1    
    82   41  119 1    
    83   41  120 1    
    84   42   43 am   BACKBONE|DICT|INTERRES
    85   42  121 1    
    86   43   44 2    
    87   43   45 1    
    88   45   46 1    
    89   45   47 1    
    90   45  122 1    
    91   46  123 1    
    92   46  124 1    
    93   46  125 1    
    94   47   48 am   BACKBONE|DICT|INTERRES
    95   47  126 1    
    96   48   49 2    
    97   48   50 1    
    98   50   51 1    
    99   50   52 1    
   100   50  127 1    
   101   51  128 1    
   102   51  129 1    
   103   51  130 1    
   104   52   53 am   BACKBONE|DICT|INTERRES
   105   52  131 1    
   106   53   54 2    
   107   53   55 1    
   108   55   56 1    
   109   55   59 1    
   110   55  132 1    
   111   56   57 1    
   112   56  133 1    
   113   56  134 1    
   114   57   58 1    
   115   58  135 1    
   116   58  136 1    
   117   59   60 am   BACKBONE|DICT|INTERRES
   118   59  137 1    
   119   60   61 2    
   120   60   62 1    
   121   62   63 1    
   122   62   64 1    
   123   62  138 1    
   124   63  139 1    
   125   63  140 1    
   126   63  141 1    
   127   64   65 am   BACKBONE|DICT|INTERRES
   128   64  142 1    
   129   65   66 2    
   130   65   67 1    
   131   67   68 1    
   132   67   69 1    
   133   67  143 1    
   134   68  144 1    
   135   68  145 1    
   136   68  146 1    
   137   69   70 am   BACKBONE|DICT|INTERRES
   138   69  147 1    
   139   70   71 2    
   140   70   72 1    
   141   72   73 1    
   142   72   74 1    
   143   72  148 1    
   144   73  149 1    
   145   73  150 1    
   146   73  151 1    
   147   74   75 am   BACKBONE|DICT|INTERRES
   148   74  152 1    
   149   75   76 2    
   150   75   77 1    
   151   77   78 1    
   152   77   79 1    
   153   77  153 1    
   154   78  154 1    
   155   78  155 1    
   156   78  156 1    
   157   79   80 am   BACKBONE|DICT|INTERRES
   158   79  157 1    
   159   80   81 2    
@<TRIPOS>SUBSTRUCTURE
     1 UNK         1 GROUP             0       ****    0 ROOT    
