@<TRIPOS>MOLECULE
3R207
157   159    1
SMALL
USER_CHARGES


@<TRIPOS>ATOM
      1 CA        -48.8477  -31.8609    8.1822 C.3       0 UNK        -0.1975 
      2 C         -48.5920  -30.3623    8.2278 C.2       0 UNK         0.4852 
      3 O         -48.7345  -29.7555    9.2886 O.2       0 UNK        -0.5216 
      4 N         -48.2175  -29.7680    7.0853 N.am      1 UNK        -0.4461 
      5 CA        -47.9311  -28.3431    6.8569 C.3       1 UNK         0.0864 
      6 C6        -49.1379  -27.3995    7.1177 C.3       14 UNK        -0.0898 
      7 S7        -50.3370  -27.4428    5.7448 S.3       14 UNK        -0.2598 
      8 C8        -51.5186  -28.7245    6.2767 C.3       14 UNK         0.0286 
      9 C9        -52.3256  -28.3128    7.4995 C.ar      14 UNK        -0.0844 
     10 C10       -53.1807  -27.2080    7.4397 C.ar      14 UNK        -0.0881 
     11 C11       -53.9313  -26.8300    8.5564 C.ar      14 UNK        -0.0643 
     12 C12       -53.8408  -27.5793    9.7320 C.ar      14 UNK        -0.0930 
     13 C13       -52.9886  -28.6834    9.8032 C.ar      14 UNK        -0.0827 
     14 C14       -52.2323  -29.0466    8.6861 C.ar      14 UNK        -0.1249 
     15 C15       -52.8824  -29.4668   11.0978 C.3       14 UNK         0.0141 
     16 S16       -54.2471  -30.6580   11.2512 S.3       14 UNK        -0.2313 
     17 C17       -54.4190  -30.7699   13.0633 C.3       14 UNK        -0.0915 
     18 CA        -55.8151  -30.3012   13.5558 C.3       13 UNK         0.0968 
     19 C         -56.0131  -30.5791   15.0754 C.2       13 UNK         0.5732 
     20 N         -56.3910  -29.6096   15.9018 N.am      13 UNK        -0.7310 
     21 O         -55.8339  -31.7114   15.5174 O.2       13 UNK        -0.5035 
     22 N         -56.1065  -28.9122   13.1645 N.am      13 UNK        -0.4233 
     23 C         -57.3339  -28.4512   12.8850 C.2       13 UNK         0.4989 
     24 O         -58.3343  -29.1698   12.8364 O.2       13 UNK        -0.4996 
     25 CA        -57.4753  -26.9350   12.6205 C.3       12 UNK         0.0216 
     26 CB        -58.9146  -26.4242   12.8472 C.3       12 UNK        -0.1964 
     27 N         -56.5180  -26.1085   13.3682 N.am      12 UNK        -0.4276 
     28 C         -56.3374  -26.0802   14.6966 C.2       12 UNK         0.5020 
     29 O         -56.9892  -26.7447   15.5051 O.2       12 UNK        -0.5489 
     30 CA        -55.1682  -25.2157   15.1977 C.3       11 UNK         0.0294 
     31 CB        -55.6346  -24.2103   16.2632 C.3       11 UNK        -0.2019 
     32 N         -54.0819  -26.0353   15.7433 N.am      11 UNK        -0.4493 
     33 C         -53.4303  -26.9960   15.0748 C.2       11 UNK         0.4932 
     34 O         -53.6979  -27.3358   13.9195 O.2       11 UNK        -0.5029 
     35 CA        -52.2925  -27.6977   15.8197 C.3       10 UNK         0.0280 
     36 CB        -52.7892  -29.0252   16.4285 C.3       10 UNK        -0.1976 
     37 N         -51.1993  -27.8854   14.8674 N.am      10 UNK        -0.4242 
     38 C         -50.0167  -28.4740   15.0856 C.2       10 UNK         0.5072 
     39 O         -49.6940  -29.0285   16.1368 O.2       10 UNK        -0.5224 
     40 CA        -48.9940  -28.3733   13.9452 C.3       9 UNK         0.0343 
     41 CB        -49.5171  -28.9861   12.6352 C.3       9 UNK        -0.2003 
     42 N         -48.6529  -26.9687   13.7362 N.am      9 UNK        -0.4272 
     43 C         -47.7003  -26.3144   14.4168 C.2       9 UNK         0.4988 
     44 O         -46.8936  -26.8612   15.1698 O.2       9 UNK        -0.5108 
     45 CA        -47.6419  -24.7848   14.2499 C.3       8 UNK         0.0248 
     46 CB        -46.6704  -24.4014   13.1263 C.3       8 UNK        -0.2001 
     47 N         -48.9503  -24.1879   13.9766 N.am      8 UNK        -0.4140 
     48 C         -49.9725  -24.1566   14.8427 C.2       8 UNK         0.5028 
     49 O         -49.8960  -24.5394   16.0102 O.2       8 UNK        -0.5428 
     50 CA        -51.3180  -23.6279   14.3172 C.3       7 UNK         0.0264 
     51 CB        -51.5418  -22.1760   14.7688 C.3       7 UNK        -0.1988 
     52 N         -51.4896  -23.7112   12.8614 N.am      7 UNK        -0.4454 
     53 C         -51.5239  -24.8465   12.1453 C.2       7 UNK         0.5027 
     54 O         -51.2790  -25.9586   12.6139 O.2       7 UNK        -0.5083 
     55 CA        -51.8755  -24.6926   10.6537 C.3       6 UNK         0.0844 
     56 C56       -53.3478  -24.2291   10.4883 C.3       14 UNK        -0.0967 
     57 S57       -53.8587  -24.0749    8.7423 S.3       14 UNK        -0.2604 
     58 C58       -54.8221  -25.6001    8.4965 C.3       14 UNK         0.0134 
     59 N         -50.9262  -23.7994    9.9838 N.am      6 UNK        -0.4116 
     60 C         -49.6594  -24.1185    9.6899 C.2       5 UNK         0.5034 
     61 O         -49.1423  -25.2043    9.9570 O.2       5 UNK        -0.5045 
     62 CA        -48.8274  -23.0184    9.0186 C.3       5 UNK         0.0224 
     63 CB        -48.0864  -22.1875   10.0794 C.3       5 UNK        -0.1978 
     64 N         -47.8409  -23.6128    8.1168 N.am      5 UNK        -0.4737 
     65 C         -47.7804  -23.3979    6.7948 C.2       4 UNK         0.5027 
     66 O         -48.5643  -22.6586    6.1971 O.2       4 UNK        -0.5211 
     67 CA        -46.6820  -24.1310    5.9913 C.3       4 UNK         0.0297 
     68 CB        -46.2479  -23.3555    4.7292 C.3       4 UNK        -0.1993 
     69 N         -45.5160  -24.5250    6.7901 N.am      4 UNK        -0.4486 
     70 C         -44.6667  -23.7280    7.4595 C.2       3 UNK         0.4961 
     71 O         -44.6872  -22.4977    7.3971 O.2       3 UNK        -0.5105 
     72 CA        -43.6313  -24.4305    8.3710 C.3       3 UNK         0.0299 
     73 CB        -43.1915  -23.5407    9.5535 C.3       3 UNK        -0.1972 
     74 N         -44.0691  -25.7495    8.8577 N.am      3 UNK        -0.4305 
     75 C         -45.1919  -26.0118    9.5441 C.2       2 UNK         0.5006 
     76 O         -45.9894  -25.1477    9.9034 O.2       2 UNK        -0.5106 
     77 CA        -45.5269  -27.4948    9.7817 C.3       2 UNK         0.0296 
     78 CB        -45.9337  -27.7417   11.2442 C.3       2 UNK        -0.2002 
     79 N         -46.6113  -27.9517    8.9057 N.am      2 UNK        -0.4032 
     80 C         -46.6530  -27.8577    7.5697 C.2       1 UNK         0.5000 
     81 O         -45.7298  -27.4072    6.8876 O.2       1 UNK        -0.5238 
     82 H82       -49.8736  -32.0736    8.4814 H         1 UNK         0.0889 
     83 H83       -48.1784  -32.3755    8.8711 H         1 UNK         0.0889 
     84 H84       -48.6924  -32.2729    7.1853 H         1 UNK         0.0889 
     85 H85       -48.0955  -30.3476    6.2663 H         1 UNK         0.3028 
     86 H86       -47.6940  -28.2753    5.7935 H         1 UNK         0.0864 
     87 H87       -49.6329  -27.6171    8.0650 H         1 UNK         0.0720 
     88 H88       -48.8091  -26.3620    7.1983 H         1 UNK         0.0720 
     89 H89       -50.9845  -29.6580    6.4551 H         1 UNK         0.0814 
     90 H90       -52.2076  -28.9245    5.4551 H         1 UNK         0.0814 
     91 H91       -53.2476  -26.6305    6.5277 H         1 UNK         0.1469 
     92 H92       -54.4203  -27.2991   10.6005 H         1 UNK         0.1381 
     93 H93       -51.5718  -29.9006    8.7436 H         1 UNK         0.1206 
     94 H94       -51.9340  -30.0032   11.1485 H         1 UNK         0.0813 
     95 H95       -52.8863  -28.7661   11.9324 H         1 UNK         0.0813 
     96 H96       -53.6300  -30.1944   13.5460 H         1 UNK         0.0638 
     97 H97       -54.2445  -31.8115   13.3384 H         1 UNK         0.0638 
     98 H98       -56.5429  -30.9472   13.0615 H         1 UNK         0.0568 
     99 H99       -56.5764  -28.6671   15.5733 H         1 UNK         0.3450 
    100 H100      -56.5223  -29.8280   16.8758 H         1 UNK         0.3450 
    101 H101      -55.3300  -28.2628   13.2406 H         1 UNK         0.2987 
    102 H102      -57.2392  -26.7959   11.5644 H         1 UNK         0.0766 
    103 H103      -59.6228  -26.9391   12.1968 H         1 UNK         0.0798 
    104 H104      -58.9967  -25.3590   12.6312 H         1 UNK         0.0798 
    105 H105      -59.2413  -26.5839   13.8755 H         1 UNK         0.0798 
    106 H106      -55.8941  -25.5533   12.8006 H         1 UNK         0.3198 
    107 H107      -54.7606  -24.6489   14.3579 H         1 UNK         0.0843 
    108 H108      -56.0113  -24.7125   17.1554 H         1 UNK         0.0831 
    109 H109      -56.4400  -23.5824   15.8798 H         1 UNK         0.0831 
    110 H110      -54.8246  -23.5465   16.5666 H         1 UNK         0.0831 
    111 H111      -53.8259  -25.8567   16.7036 H         1 UNK         0.3133 
    112 H112      -51.9342  -27.0444   16.6175 H         1 UNK         0.0566 
    113 H113      -52.9852  -29.7754   15.6649 H         1 UNK         0.0814 
    114 H114      -53.7139  -28.8796   16.9885 H         1 UNK         0.0814 
    115 H115      -52.0647  -29.4444   17.1258 H         1 UNK         0.0814 
    116 H116      -51.3593  -27.4306   13.9702 H         1 UNK         0.3091 
    117 H117      -48.1024  -28.9317   14.2387 H         1 UNK         0.0702 
    118 H118      -48.7296  -29.0245   11.8833 H         1 UNK         0.0785 
    119 H119      -50.3427  -28.4150   12.2116 H         1 UNK         0.0785 
    120 H120      -49.8652  -30.0079   12.7903 H         1 UNK         0.0785 
    121 H121      -49.3014  -26.4345   13.1692 H         1 UNK         0.2998 
    122 H122      -47.2673  -24.3652   15.1860 H         1 UNK         0.0697 
    123 H123      -46.5229  -23.3227   13.0743 H         1 UNK         0.0825 
    124 H124      -47.0429  -24.7377   12.1595 H         1 UNK         0.0825 
    125 H125      -45.6905  -24.8570   13.2757 H         1 UNK         0.0825 
    126 H126      -49.1106  -23.8482   13.0403 H         1 UNK         0.3029 
    127 H127      -52.0949  -24.2447   14.7711 H         1 UNK         0.0897 
    128 H128      -50.8147  -21.4968   14.3216 H         1 UNK         0.0792 
    129 H129      -51.4486  -22.0851   15.8521 H         1 UNK         0.0792 
    130 H130      -52.5395  -21.8258   14.5033 H         1 UNK         0.0792 
    131 H131      -51.6665  -22.8385   12.3854 H         1 UNK         0.3086 
    132 H132      -51.7777  -25.6796   10.1967 H         1 UNK         0.0583 
    133 H133      -54.0242  -24.9142   11.0014 H         1 UNK         0.1020 
    134 H134      -53.5055  -23.2560   10.9571 H         1 UNK         0.1020 
    135 H135      -55.6183  -25.6584    9.2404 H         1 UNK         0.0694 
    136 H136      -55.3158  -25.5534    7.5247 H         1 UNK         0.0694 
    137 H137      -51.2825  -22.8954    9.7105 H         1 UNK         0.2989 
    138 H138      -49.5042  -22.3596    8.4700 H         1 UNK         0.1055 
    139 H139      -47.5241  -21.3749    9.6190 H         1 UNK         0.0806 
    140 H140      -47.3811  -22.7966   10.6455 H         1 UNK         0.0806 
    141 H141      -48.7814  -21.7394   10.7907 H         1 UNK         0.0806 
    142 H142      -47.1906  -24.2571    8.5606 H         1 UNK         0.3061 
    143 H143      -47.1376  -25.0640    5.6565 H         1 UNK         0.0734 
    144 H144      -45.8504  -22.3706    4.9759 H         1 UNK         0.0832 
    145 H145      -45.4831  -23.8974    4.1730 H         1 UNK         0.0832 
    146 H146      -47.0902  -23.2041    4.0531 H         1 UNK         0.0832 
    147 H147      -45.4053  -25.5303    6.9074 H         1 UNK         0.3156 
    148 H148      -42.7546  -24.6108    7.7475 H         1 UNK         0.0589 
    149 H149      -42.4560  -24.0460   10.1792 H         1 UNK         0.0808 
    150 H150      -44.0362  -23.2637   10.1856 H         1 UNK         0.0808 
    151 H151      -42.7332  -22.6161    9.2007 H         1 UNK         0.0808 
    152 H152      -43.5051  -26.5327    8.5557 H         1 UNK         0.3098 
    153 H153      -44.6434  -28.0979    9.5649 H         1 UNK         0.0720 
    154 H154      -45.1648  -27.3894   11.9329 H         1 UNK         0.0791 
    155 H155      -46.0880  -28.8026   11.4416 H         1 UNK         0.0791 
    156 H156      -46.8583  -27.2188   11.4917 H         1 UNK         0.0791 
    157 H157      -47.4186  -28.3783    9.3539 H         1 UNK         0.3028 
@<TRIPOS>BOND
     1    1    2 1    
     2    1   82 1    
     3    1   83 1    
     4    1   84 1    
     5    2    3 2    
     6    2    4 am   BACKBONE|DICT|INTERRES
     7    4    5 1    
     8    4   85 1    
     9    5    6 1    
    10    5   80 1    
    11    5   86 1    
    12    6    7 1    
    13    6   87 1    
    14    6   88 1    
    15    7    8 1    
    16    8    9 1    
    17    8   89 1    
    18    8   90 1    
    19    9   10 ar   
    20    9   14 ar   
    21   10   11 ar   
    22   10   91 1    
    23   11   12 ar   
    24   11   58 1    
    25   12   13 ar   
    26   12   92 1    
    27   13   14 ar   
    28   13   15 1    
    29   14   93 1    
    30   15   16 1    
    31   15   94 1    
    32   15   95 1    
    33   16   17 1    
    34   17   18 1    
    35   17   96 1    
    36   17   97 1    
    37   18   19 1    
    38   18   22 1    
    39   18   98 1    
    40   19   20 am   BACKBONE|DICT|INTERRES
    41   19   21 2    
    42   20   99 1    
    43   20  100 1    
    44   22   23 am   BACKBONE|DICT|INTERRES
    45   22  101 1    
    46   23   24 2    
    47   23   25 1    
    48   25   26 1    
    49   25   27 1    
    50   25  102 1    
    51   26  103 1    
    52   26  104 1    
    53   26  105 1    
    54   27   28 am   BACKBONE|DICT|INTERRES
    55   27  106 1    
    56   28   29 2    
    57   28   30 1    
    58   30   31 1    
    59   30   32 1    
    60   30  107 1    
    61   31  108 1    
    62   31  109 1    
    63   31  110 1    
    64   32   33 am   BACKBONE|DICT|INTERRES
    65   32  111 1    
    66   33   34 2    
    67   33   35 1    
    68   35   36 1    
    69   35   37 1    
    70   35  112 1    
    71   36  113 1    
    72   36  114 1    
    73   36  115 1    
    74   37   38 am   BACKBONE|DICT|INTERRES
    75   37  116 1    
    76   38   39 2    
    77   38   40 1    
    78   40   41 1    
    79   40   42 1    
    80   40  117 1    
    81   41  118 1    
    82   41  119 1    
    83   41  120 1    
    84   42   43 am   BACKBONE|DICT|INTERRES
    85   42  121 1    
    86   43   44 2    
    87   43   45 1    
    88   45   46 1    
    89   45   47 1    
    90   45  122 1    
    91   46  123 1    
    92   46  124 1    
    93   46  125 1    
    94   47   48 am   BACKBONE|DICT|INTERRES
    95   47  126 1    
    96   48   49 2    
    97   48   50 1    
    98   50   51 1    
    99   50   52 1    
   100   50  127 1    
   101   51  128 1    
   102   51  129 1    
   103   51  130 1    
   104   52   53 am   BACKBONE|DICT|INTERRES
   105   52  131 1    
   106   53   54 2    
   107   53   55 1    
   108   55   56 1    
   109   55   59 1    
   110   55  132 1    
   111   56   57 1    
   112   56  133 1    
   113   56  134 1    
   114   57   58 1    
   115   58  135 1    
   116   58  136 1    
   117   59   60 am   BACKBONE|DICT|INTERRES
   118   59  137 1    
   119   60   61 2    
   120   60   62 1    
   121   62   63 1    
   122   62   64 1    
   123   62  138 1    
   124   63  139 1    
   125   63  140 1    
   126   63  141 1    
   127   64   65 am   BACKBONE|DICT|INTERRES
   128   64  142 1    
   129   65   66 2    
   130   65   67 1    
   131   67   68 1    
   132   67   69 1    
   133   67  143 1    
   134   68  144 1    
   135   68  145 1    
   136   68  146 1    
   137   69   70 am   BACKBONE|DICT|INTERRES
   138   69  147 1    
   139   70   71 2    
   140   70   72 1    
   141   72   73 1    
   142   72   74 1    
   143   72  148 1    
   144   73  149 1    
   145   73  150 1    
   146   73  151 1    
   147   74   75 am   BACKBONE|DICT|INTERRES
   148   74  152 1    
   149   75   76 2    
   150   75   77 1    
   151   77   78 1    
   152   77   79 1    
   153   77  153 1    
   154   78  154 1    
   155   78  155 1    
   156   78  156 1    
   157   79   80 am   BACKBONE|DICT|INTERRES
   158   79  157 1    
   159   80   81 2    
@<TRIPOS>SUBSTRUCTURE
     1 UNK         1 GROUP             0       ****    0 ROOT    
