@<TRIPOS>MOLECULE
3R207
157   159    1
SMALL
USER_CHARGES


@<TRIPOS>ATOM
      1 CA        -47.0431  -28.4690   11.4220 C.3       0 UNK        -0.1975 
      2 C         -47.2073  -29.1743   10.0842 C.2       0 UNK         0.4852 
      3 O         -46.2560  -29.7754    9.5850 O.2       0 UNK        -0.5216 
      4 N         -48.4125  -29.1082    9.5044 N.am      1 UNK        -0.4461 
      5 CA        -48.7690  -29.7559    8.2345 C.3       1 UNK         0.0864 
      6 C6        -50.3013  -29.9311    8.0993 C.3       14 UNK        -0.0898 
      7 S7        -51.0251  -31.0435    9.3561 S.3       14 UNK        -0.2598 
      8 C8        -51.5924  -29.9089   10.6719 C.3       14 UNK         0.0286 
      9 C9        -52.4205  -28.7359   10.1623 C.ar      14 UNK        -0.0844 
     10 C10       -52.0447  -27.4292   10.4855 C.ar      14 UNK        -0.0881 
     11 C11       -52.7661  -26.3397    9.9909 C.ar      14 UNK        -0.0643 
     12 C12       -53.8742  -26.5615    9.1679 C.ar      14 UNK        -0.0930 
     13 C13       -54.2685  -27.8646    8.8476 C.ar      14 UNK        -0.0827 
     14 C14       -53.5447  -28.9472    9.3575 C.ar      14 UNK        -0.1249 
     15 C15       -55.4471  -28.1022    7.9128 C.3       14 UNK         0.0141 
     16 S16       -57.0537  -27.7748    8.7056 S.3       14 UNK        -0.2313 
     17 C17       -57.1444  -29.1006    9.9565 C.3       14 UNK        -0.0915 
     18 CA        -57.2085  -28.5379   11.4087 C.3       13 UNK         0.0968 
     19 C         -58.6603  -28.2464   11.9031 C.2       13 UNK         0.5732 
     20 N         -59.0010  -28.4913   13.1646 N.am      13 UNK        -0.7310 
     21 O         -59.4944  -27.7635   11.1410 O.2       13 UNK        -0.5035 
     22 N         -56.3941  -29.3053   12.3603 N.am      13 UNK        -0.4233 
     23 C         -56.5291  -30.6045   12.6613 C.2       13 UNK         0.4989 
     24 O         -57.2841  -31.3765   12.0696 O.2       13 UNK        -0.4996 
     25 CA        -55.7059  -31.1324   13.8517 C.3       12 UNK         0.0216 
     26 CB        -54.4561  -31.8775   13.3602 C.3       12 UNK        -0.1964 
     27 N         -55.3123  -30.0755   14.7911 N.am      12 UNK        -0.4276 
     28 C         -56.1754  -29.4216   15.5859 C.2       12 UNK         0.5020 
     29 O         -57.3772  -29.6854   15.6432 O.2       12 UNK        -0.5489 
     30 CA        -55.6322  -28.2443   16.4175 C.3       11 UNK         0.0294 
     31 CB        -55.2237  -28.7217   17.8201 C.3       11 UNK        -0.2019 
     32 N         -54.5030  -27.5500   15.7934 N.am      11 UNK        -0.4493 
     33 C         -54.5309  -26.9425   14.5981 C.2       11 UNK         0.4932 
     34 O         -55.5425  -26.8447   13.9043 O.2       11 UNK        -0.5029 
     35 CA        -53.1993  -26.3928   14.0590 C.3       10 UNK         0.0280 
     36 CB        -53.0954  -24.8864   14.3372 C.3       10 UNK        -0.1976 
     37 N         -51.9971  -27.0648   14.5700 N.am      10 UNK        -0.4242 
     38 C         -51.7215  -28.3734   14.4661 C.2       10 UNK         0.5072 
     39 O         -52.5147  -29.1925   13.9992 O.2       10 UNK        -0.5224 
     40 CA        -50.3694  -28.8801   15.0138 C.3       9 UNK         0.0343 
     41 CB        -49.6751  -29.8238   14.0110 C.3       9 UNK        -0.2003 
     42 N         -49.4228  -27.8554   15.4878 N.am      9 UNK        -0.4272 
     43 C         -48.8394  -26.8794   14.7763 C.2       9 UNK         0.4988 
     44 O         -49.1212  -26.6151   13.6062 O.2       9 UNK        -0.5108 
     45 CA        -47.7348  -26.0950   15.4991 C.3       8 UNK         0.0248 
     46 CB        -46.3971  -26.8447   15.3803 C.3       8 UNK        -0.2001 
     47 N         -47.5838  -24.7789   14.8856 N.am      8 UNK        -0.4140 
     48 C         -47.7894  -23.6002   15.4914 C.2       8 UNK         0.5028 
     49 O         -48.0491  -23.4816   16.6898 O.2       8 UNK        -0.5428 
     50 CA        -47.7027  -22.3290   14.6178 C.3       7 UNK         0.0264 
     51 CB        -46.3250  -21.6638   14.7684 C.3       7 UNK        -0.1988 
     52 N         -47.9502  -22.6024   13.2002 N.am      7 UNK        -0.4454 
     53 C         -49.1290  -23.0083   12.7086 C.2       7 UNK         0.5027 
     54 O         -50.1768  -22.9225   13.3496 O.2       7 UNK        -0.5083 
     55 CA        -49.1565  -23.6755   11.3115 C.3       6 UNK         0.0844 
     56 C56       -50.2679  -23.0766   10.4060 C.3       14 UNK        -0.0967 
     57 S57       -50.9727  -24.3490    9.3090 S.3       14 UNK        -0.2604 
     58 C58       -52.3421  -24.9284   10.3589 C.3       14 UNK         0.0134 
     59 N         -47.8604  -23.7433   10.6156 N.am      6 UNK        -0.4116 
     60 C         -46.7685  -24.4187   11.0093 C.2       5 UNK         0.5034 
     61 O         -46.7028  -25.0401   12.0697 O.2       5 UNK        -0.5045 
     62 CA        -45.5224  -24.3685   10.1075 C.3       5 UNK         0.0224 
     63 CB        -45.0721  -25.7844    9.7112 C.3       5 UNK        -0.1978 
     64 N         -45.7419  -23.5910    8.8866 N.am      5 UNK        -0.4737 
     65 C         -45.2568  -22.3646    8.6508 C.2       4 UNK         0.5027 
     66 O         -44.5944  -21.7266    9.4690 O.2       4 UNK        -0.5211 
     67 CA        -45.5350  -21.7423    7.2685 C.3       4 UNK         0.0297 
     68 CB        -44.2649  -21.7796    6.4027 C.3       4 UNK        -0.1993 
     69 N         -46.6233  -22.4004    6.5408 N.am      4 UNK        -0.4486 
     70 C         -47.9248  -22.2454    6.8167 C.2       3 UNK         0.4961 
     71 O         -48.3546  -21.4847    7.6835 O.2       3 UNK        -0.5105 
     72 CA        -48.9080  -23.1208    6.0176 C.3       3 UNK         0.0299 
     73 CB        -49.3287  -22.4101    4.7214 C.3       3 UNK        -0.1972 
     74 N         -48.4041  -24.4656    5.7002 N.am      3 UNK        -0.4305 
     75 C         -48.0165  -25.3680    6.6118 C.2       2 UNK         0.5006 
     76 O         -47.9443  -25.1371    7.8199 O.2       2 UNK        -0.5106 
     77 CA        -47.6046  -26.7512    6.1060 C.3       2 UNK         0.0296 
     78 CB        -46.0947  -26.8070    5.8129 C.3       2 UNK        -0.2002 
     79 N         -47.9529  -27.6971    7.1593 N.am      2 UNK        -0.4032 
     80 C         -48.2257  -28.9966    7.0035 C.2       1 UNK         0.5000 
     81 O         -48.0957  -29.5955    5.9339 O.2       1 UNK        -0.5238 
     82 H82       -47.7823  -27.6793   11.5554 H         1 UNK         0.0889 
     83 H83       -46.0561  -28.0171   11.4994 H         1 UNK         0.0889 
     84 H84       -47.1460  -29.1822   12.2387 H         1 UNK         0.0889 
     85 H85       -49.1574  -28.6020    9.9588 H         1 UNK         0.3028 
     86 H86       -48.3126  -30.7483    8.2184 H         1 UNK         0.0864 
     87 H87       -50.8025  -28.9625    8.1077 H         1 UNK         0.0720 
     88 H88       -50.5431  -30.3731    7.1305 H         1 UNK         0.0720 
     89 H89       -50.7202  -29.5531   11.2177 H         1 UNK         0.0814 
     90 H90       -52.1846  -30.4733   11.3903 H         1 UNK         0.0814 
     91 H91       -51.1858  -27.2512   11.1191 H         1 UNK         0.1469 
     92 H92       -54.4294  -25.7214    8.7737 H         1 UNK         0.1381 
     93 H93       -53.8359  -29.9576    9.1051 H         1 UNK         0.1206 
     94 H94       -55.3483  -27.4518    7.0425 H         1 UNK         0.0813 
     95 H95       -55.4379  -29.1231    7.5277 H         1 UNK         0.0813 
     96 H96       -58.0032  -29.7381    9.7391 H         1 UNK         0.0638 
     97 H97       -56.2734  -29.7448    9.8350 H         1 UNK         0.0638 
     98 H98       -56.7256  -27.5601   11.4075 H         1 UNK         0.0568 
     99 H99       -59.9407  -28.2859   13.4641 H         1 UNK         0.3450 
    100 H100      -58.3395  -28.8829   13.8216 H         1 UNK         0.3450 
    101 H101      -55.7824  -28.7383   12.9339 H         1 UNK         0.2987 
    102 H102      -56.3336  -31.8450   14.3911 H         1 UNK         0.0766 
    103 H103      -54.7274  -32.7070   12.7058 H         1 UNK         0.0798 
    104 H104      -53.8849  -32.2914   14.1912 H         1 UNK         0.0798 
    105 H105      -53.7981  -31.2196   12.7952 H         1 UNK         0.0798 
    106 H106      -54.3439  -29.7697   14.7502 H         1 UNK         0.3198 
    107 H107      -56.4433  -27.5206   16.5233 H         1 UNK         0.0843 
    108 H108      -54.3948  -29.4297   17.7814 H         1 UNK         0.0831 
    109 H109      -56.0556  -29.2219   18.3185 H         1 UNK         0.0831 
    110 H110      -54.9253  -27.8866   18.4540 H         1 UNK         0.0831 
    111 H111      -53.6232  -27.5758   16.2877 H         1 UNK         0.3133 
    112 H112      -53.2128  -26.5402   12.9783 H         1 UNK         0.0566 
    113 H113      -52.2077  -24.4600   13.8728 H         1 UNK         0.0814 
    114 H114      -53.9568  -24.3530   13.9325 H         1 UNK         0.0814 
    115 H115      -53.0508  -24.6736   15.4059 H         1 UNK         0.0814 
    116 H116      -51.2743  -26.4696   14.9468 H         1 UNK         0.3091 
    117 H117      -50.6232  -29.4743   15.8928 H         1 UNK         0.0702 
    118 H118      -48.7719  -30.2601   14.4374 H         1 UNK         0.0785 
    119 H119      -49.3939  -29.2985   13.0998 H         1 UNK         0.0785 
    120 H120      -50.3267  -30.6504   13.7242 H         1 UNK         0.0785 
    121 H121      -49.1341  -27.9632   16.4509 H         1 UNK         0.2998 
    122 H122      -48.0021  -26.0022   16.5536 H         1 UNK         0.0697 
    123 H123      -46.1012  -26.9745   14.3378 H         1 UNK         0.0825 
    124 H124      -46.4580  -27.8369   15.8292 H         1 UNK         0.0825 
    125 H125      -45.5968  -26.3074   15.8894 H         1 UNK         0.0825 
    126 H126      -47.4116  -24.7983   13.8831 H         1 UNK         0.3029 
    127 H127      -48.4651  -21.6316   14.9722 H         1 UNK         0.0897 
    128 H128      -46.2696  -20.7322   14.2049 H         1 UNK         0.0792 
    129 H129      -45.5214  -22.3156   14.4228 H         1 UNK         0.0792 
    130 H130      -46.1219  -21.4218   15.8127 H         1 UNK         0.0792 
    131 H131      -47.1362  -22.7079   12.6130 H         1 UNK         0.3086 
    132 H132      -49.4261  -24.7106   11.5340 H         1 UNK         0.0583 
    133 H133      -51.0891  -22.6412   10.9793 H         1 UNK         0.1020 
    134 H134      -49.8776  -22.2570    9.8009 H         1 UNK         0.1020 
    135 H135      -52.0334  -24.9126   11.4052 H         1 UNK         0.0694 
    136 H136      -53.1817  -24.2367   10.2749 H         1 UNK         0.0694 
    137 H137      -47.8236  -23.2885    9.7145 H         1 UNK         0.2989 
    138 H138      -44.7230  -23.9175   10.6996 H         1 UNK         0.1055 
    139 H139      -45.8745  -26.3478    9.2339 H         1 UNK         0.0806 
    140 H140      -44.7485  -26.3457   10.5876 H         1 UNK         0.0806 
    141 H141      -44.2270  -25.7556    9.0233 H         1 UNK         0.0806 
    142 H142      -46.3444  -24.0271    8.1957 H         1 UNK         0.3061 
    143 H143      -45.8076  -20.6969    7.4298 H         1 UNK         0.0734 
    144 H144      -44.4219  -21.2847    5.4441 H         1 UNK         0.0832 
    145 H145      -43.4398  -21.2655    6.8981 H         1 UNK         0.0832 
    146 H146      -43.9390  -22.8018    6.2058 H         1 UNK         0.0832 
    147 H147      -46.3622  -23.0471    5.8105 H         1 UNK         0.3156 
    148 H148      -49.7988  -23.2490    6.6360 H         1 UNK         0.0589 
    149 H149      -50.1100  -22.9635    4.2000 H         1 UNK         0.0808 
    150 H150      -49.7263  -21.4164    4.9330 H         1 UNK         0.0808 
    151 H151      -48.4890  -22.2857    4.0363 H         1 UNK         0.0808 
    152 H152      -48.4160  -24.7337    4.7261 H         1 UNK         0.3098 
    153 H153      -48.1715  -26.9861    5.2027 H         1 UNK         0.0720 
    154 H154      -45.7946  -27.7971    5.4693 H         1 UNK         0.0791 
    155 H155      -45.5026  -26.5683    6.6972 H         1 UNK         0.0791 
    156 H156      -45.8198  -26.0969    5.0322 H         1 UNK         0.0791 
    157 H157      -48.1099  -27.2599    8.0593 H         1 UNK         0.3028 
@<TRIPOS>BOND
     1    1    2 1    
     2    1   82 1    
     3    1   83 1    
     4    1   84 1    
     5    2    3 2    
     6    2    4 am   BACKBONE|DICT|INTERRES
     7    4    5 1    
     8    4   85 1    
     9    5    6 1    
    10    5   80 1    
    11    5   86 1    
    12    6    7 1    
    13    6   87 1    
    14    6   88 1    
    15    7    8 1    
    16    8    9 1    
    17    8   89 1    
    18    8   90 1    
    19    9   10 ar   
    20    9   14 ar   
    21   10   11 ar   
    22   10   91 1    
    23   11   12 ar   
    24   11   58 1    
    25   12   13 ar   
    26   12   92 1    
    27   13   14 ar   
    28   13   15 1    
    29   14   93 1    
    30   15   16 1    
    31   15   94 1    
    32   15   95 1    
    33   16   17 1    
    34   17   18 1    
    35   17   96 1    
    36   17   97 1    
    37   18   19 1    
    38   18   22 1    
    39   18   98 1    
    40   19   20 am   BACKBONE|DICT|INTERRES
    41   19   21 2    
    42   20   99 1    
    43   20  100 1    
    44   22   23 am   BACKBONE|DICT|INTERRES
    45   22  101 1    
    46   23   24 2    
    47   23   25 1    
    48   25   26 1    
    49   25   27 1    
    50   25  102 1    
    51   26  103 1    
    52   26  104 1    
    53   26  105 1    
    54   27   28 am   BACKBONE|DICT|INTERRES
    55   27  106 1    
    56   28   29 2    
    57   28   30 1    
    58   30   31 1    
    59   30   32 1    
    60   30  107 1    
    61   31  108 1    
    62   31  109 1    
    63   31  110 1    
    64   32   33 am   BACKBONE|DICT|INTERRES
    65   32  111 1    
    66   33   34 2    
    67   33   35 1    
    68   35   36 1    
    69   35   37 1    
    70   35  112 1    
    71   36  113 1    
    72   36  114 1    
    73   36  115 1    
    74   37   38 am   BACKBONE|DICT|INTERRES
    75   37  116 1    
    76   38   39 2    
    77   38   40 1    
    78   40   41 1    
    79   40   42 1    
    80   40  117 1    
    81   41  118 1    
    82   41  119 1    
    83   41  120 1    
    84   42   43 am   BACKBONE|DICT|INTERRES
    85   42  121 1    
    86   43   44 2    
    87   43   45 1    
    88   45   46 1    
    89   45   47 1    
    90   45  122 1    
    91   46  123 1    
    92   46  124 1    
    93   46  125 1    
    94   47   48 am   BACKBONE|DICT|INTERRES
    95   47  126 1    
    96   48   49 2    
    97   48   50 1    
    98   50   51 1    
    99   50   52 1    
   100   50  127 1    
   101   51  128 1    
   102   51  129 1    
   103   51  130 1    
   104   52   53 am   BACKBONE|DICT|INTERRES
   105   52  131 1    
   106   53   54 2    
   107   53   55 1    
   108   55   56 1    
   109   55   59 1    
   110   55  132 1    
   111   56   57 1    
   112   56  133 1    
   113   56  134 1    
   114   57   58 1    
   115   58  135 1    
   116   58  136 1    
   117   59   60 am   BACKBONE|DICT|INTERRES
   118   59  137 1    
   119   60   61 2    
   120   60   62 1    
   121   62   63 1    
   122   62   64 1    
   123   62  138 1    
   124   63  139 1    
   125   63  140 1    
   126   63  141 1    
   127   64   65 am   BACKBONE|DICT|INTERRES
   128   64  142 1    
   129   65   66 2    
   130   65   67 1    
   131   67   68 1    
   132   67   69 1    
   133   67  143 1    
   134   68  144 1    
   135   68  145 1    
   136   68  146 1    
   137   69   70 am   BACKBONE|DICT|INTERRES
   138   69  147 1    
   139   70   71 2    
   140   70   72 1    
   141   72   73 1    
   142   72   74 1    
   143   72  148 1    
   144   73  149 1    
   145   73  150 1    
   146   73  151 1    
   147   74   75 am   BACKBONE|DICT|INTERRES
   148   74  152 1    
   149   75   76 2    
   150   75   77 1    
   151   77   78 1    
   152   77   79 1    
   153   77  153 1    
   154   78  154 1    
   155   78  155 1    
   156   78  156 1    
   157   79   80 am   BACKBONE|DICT|INTERRES
   158   79  157 1    
   159   80   81 2    
@<TRIPOS>SUBSTRUCTURE
     1 UNK         1 GROUP             0       ****    0 ROOT    
