@<TRIPOS>MOLECULE
3R207
157   159    1
SMALL
USER_CHARGES


@<TRIPOS>ATOM
      1 CA        -49.1870  -28.7000    9.4637 C.3       0 UNK        -0.1975 
      2 C         -49.5299  -28.6932    7.9823 C.2       0 UNK         0.4852 
      3 O         -49.9891  -29.7064    7.4548 O.2       0 UNK        -0.5216 
      4 N         -49.3159  -27.5550    7.3146 N.am      1 UNK        -0.4461 
      5 CA        -49.5395  -27.3660    5.8783 C.3       1 UNK         0.0864 
      6 C6        -49.9152  -25.9031    5.5115 C.3       14 UNK        -0.0898 
      7 S7        -51.1290  -25.1195    6.6264 S.3       14 UNK        -0.2598 
      8 C8        -52.6277  -26.1120    6.3501 C.3       14 UNK         0.0286 
      9 C9        -53.3671  -26.2934    7.6636 C.ar      14 UNK        -0.0844 
     10 C10       -54.2417  -25.3031    8.1154 C.ar      14 UNK        -0.0881 
     11 C11       -54.8780  -25.4322    9.3527 C.ar      14 UNK        -0.0643 
     12 C12       -54.6609  -26.5769   10.1237 C.ar      14 UNK        -0.0930 
     13 C13       -53.7805  -27.5688    9.6862 C.ar      14 UNK        -0.0827 
     14 C14       -53.1413  -27.4262    8.4511 C.ar      14 UNK        -0.1249 
     15 C15       -53.4907  -28.7724   10.5655 C.3       14 UNK         0.0141 
     16 S16       -54.7788  -30.0399   10.3982 S.3       14 UNK        -0.2313 
     17 C17       -53.9955  -31.4370   11.2678 C.3       14 UNK        -0.0915 
     18 CA        -54.7508  -31.8535   12.5557 C.3       13 UNK         0.0968 
     19 C         -54.2132  -33.2203   13.0770 C.2       13 UNK         0.5732 
     20 N         -53.5241  -33.2798   14.2108 N.am      13 UNK        -0.7310 
     21 O         -54.4321  -34.2479   12.4397 O.2       13 UNK        -0.5035 
     22 N         -54.7732  -30.7777   13.5651 N.am      13 UNK        -0.4233 
     23 C         -55.5944  -30.7679   14.6240 C.2       13 UNK         0.4989 
     24 O         -56.4801  -31.6033   14.8120 O.2       13 UNK        -0.4996 
     25 CA        -55.3827  -29.6658   15.6716 C.3       12 UNK         0.0216 
     26 CB        -54.3535  -30.1157   16.7216 C.3       12 UNK        -0.1964 
     27 N         -54.9713  -28.3769   15.1096 N.am      12 UNK        -0.4276 
     28 C         -55.8232  -27.4986   14.5568 C.2       12 UNK         0.5020 
     29 O         -56.9987  -27.7724   14.3070 O.2       12 UNK        -0.5489 
     30 CA        -55.3040  -26.0711   14.2574 C.3       11 UNK         0.0294 
     31 CB        -56.4019  -25.0014   14.4291 C.3       11 UNK        -0.2019 
     32 N         -54.1025  -25.6896   15.0081 N.am      11 UNK        -0.4493 
     33 C         -53.9204  -25.6854   16.3379 C.2       11 UNK         0.4932 
     34 O         -54.8206  -25.8843   17.1550 O.2       11 UNK        -0.5029 
     35 CA        -52.4728  -25.4732   16.8317 C.3       10 UNK         0.0280 
     36 CB        -52.2140  -26.1487   18.1944 C.3       10 UNK        -0.1976 
     37 N         -51.4473  -25.8859   15.8614 N.am      10 UNK        -0.4242 
     38 C         -51.2961  -27.0888   15.2800 C.2       10 UNK         0.5072 
     39 O         -52.0366  -28.0481   15.5040 O.2       10 UNK        -0.5224 
     40 CA        -50.1809  -27.2493   14.2257 C.3       9 UNK         0.0343 
     41 CB        -50.7780  -27.6498   12.8665 C.3       9 UNK        -0.2003 
     42 N         -49.3732  -26.0435   14.0355 N.am      9 UNK        -0.4272 
     43 C         -48.3953  -25.6302   14.8522 C.2       9 UNK         0.4988 
     44 O         -47.9934  -26.2696   15.8242 O.2       9 UNK        -0.5108 
     45 CA        -47.8038  -24.2409   14.5600 C.3       8 UNK         0.0248 
     46 CB        -46.6621  -24.3365   13.5364 C.3       8 UNK        -0.2001 
     47 N         -48.8185  -23.2923   14.0867 N.am      8 UNK        -0.4140 
     48 C         -49.8121  -22.8077   14.8459 C.2       8 UNK         0.5028 
     49 O         -49.9622  -23.0875   16.0350 O.2       8 UNK        -0.5428 
     50 CA        -50.8342  -21.8884   14.1575 C.3       7 UNK         0.0264 
     51 CB        -50.3106  -20.4445   14.0970 C.3       7 UNK        -0.1988 
     52 N         -51.2025  -22.3341   12.8113 N.am      7 UNK        -0.4454 
     53 C         -51.8726  -23.4652   12.5406 C.2       7 UNK         0.5027 
     54 O         -52.2275  -24.2750   13.3976 O.2       7 UNK        -0.5083 
     55 CA        -52.1588  -23.7592   11.0514 C.3       6 UNK         0.0844 
     56 C56       -53.3565  -22.9121   10.5385 C.3       14 UNK        -0.0967 
     57 S57       -54.9601  -23.4234   11.2579 S.3       14 UNK        -0.2604 
     58 C58       -55.7576  -24.3101    9.8794 C.3       14 UNK         0.0134 
     59 N         -50.9756  -23.5994   10.1910 N.am      6 UNK        -0.4116 
     60 C         -49.7578  -24.1241   10.4028 C.2       5 UNK         0.5034 
     61 O         -49.4691  -24.8224   11.3788 O.2       5 UNK        -0.5045 
     62 CA        -48.6683  -23.7647    9.3757 C.3       5 UNK         0.0224 
     63 CB        -48.4809  -22.2391    9.2754 C.3       5 UNK        -0.1978 
     64 N         -47.3889  -24.3561    9.7731 N.am      5 UNK        -0.4737 
     65 C         -46.7875  -25.3849    9.1721 C.2       4 UNK         0.5027 
     66 O         -47.2027  -25.9308    8.1464 O.2       4 UNK        -0.5211 
     67 CA        -45.5361  -25.9355    9.8704 C.3       4 UNK         0.0297 
     68 CB        -45.9160  -27.1063   10.7926 C.3       4 UNK        -0.1993 
     69 N         -44.5820  -26.4090    8.8718 N.am      4 UNK        -0.4486 
     70 C         -43.6547  -25.6505    8.2720 C.2       3 UNK         0.4961 
     71 O         -43.3838  -24.4970    8.6071 O.2       3 UNK        -0.5105 
     72 CA        -42.9233  -26.2861    7.0734 C.3       3 UNK         0.0299 
     73 CB        -41.6740  -27.0493    7.5420 C.3       3 UNK        -0.1972 
     74 N         -43.7939  -27.1878    6.3102 N.am      3 UNK        -0.4305 
     75 C         -44.8427  -26.7801    5.5806 C.2       2 UNK         0.5006 
     76 O         -45.0914  -25.5961    5.3468 O.2       2 UNK        -0.5106 
     77 CA        -45.8070  -27.8535    5.0590 C.3       2 UNK         0.0296 
     78 CB        -45.3987  -29.3092    5.3761 C.3       2 UNK        -0.2002 
     79 N         -47.1119  -27.5638    5.6427 N.am      2 UNK        -0.4032 
     80 C         -48.3004  -27.8113    5.0785 C.2       1 UNK         0.5000 
     81 O         -48.4439  -28.3630    3.9856 O.2       1 UNK        -0.5238 
     82 H82       -48.9566  -27.6995    9.8308 H         1 UNK         0.0889 
     83 H83       -48.3259  -29.3417    9.6465 H         1 UNK         0.0889 
     84 H84       -50.0272  -29.0864   10.0388 H         1 UNK         0.0889 
     85 H85       -48.8529  -26.7817    7.7839 H         1 UNK         0.3028 
     86 H86       -50.3604  -28.0143    5.5674 H         1 UNK         0.0864 
     87 H87       -49.0288  -25.2652    5.5305 H         1 UNK         0.0720 
     88 H88       -50.2985  -25.8558    4.4906 H         1 UNK         0.0720 
     89 H89       -52.3848  -27.0857    5.9264 H         1 UNK         0.0814 
     90 H90       -53.2638  -25.6112    5.6188 H         1 UNK         0.0814 
     91 H91       -54.3974  -24.4153    7.5177 H         1 UNK         0.1469 
     92 H92       -55.1580  -26.6826   11.0760 H         1 UNK         0.1381 
     93 H93       -52.4537  -28.1878    8.1101 H         1 UNK         0.1206 
     94 H94       -52.5210  -29.1978   10.3034 H         1 UNK         0.0813 
     95 H95       -53.4250  -28.4626   11.6090 H         1 UNK         0.0813 
     96 H96       -53.9664  -32.2651   10.5568 H         1 UNK         0.0638 
     97 H97       -52.9541  -31.2050   11.4977 H         1 UNK         0.0638 
     98 H98       -55.7881  -32.0415   12.2714 H         1 UNK         0.0568 
     99 H99       -53.1878  -34.1728   14.5348 H         1 UNK         0.3450 
    100 H100      -53.3329  -32.4461   14.7411 H         1 UNK         0.3450 
    101 H101      -54.0699  -30.0604   13.4843 H         1 UNK         0.2987 
    102 H102      -56.3348  -29.5218   16.1876 H         1 UNK         0.0766 
    103 H103      -54.2410  -29.3701   17.5093 H         1 UNK         0.0798 
    104 H104      -53.3703  -30.2848   16.2812 H         1 UNK         0.0798 
    105 H105      -54.6625  -31.0468   17.1988 H         1 UNK         0.0798 
    106 H106      -54.0075  -28.0959   15.2742 H         1 UNK         0.3198 
    107 H107      -55.0036  -26.0688   13.2109 H         1 UNK         0.0843 
    108 H108      -56.7991  -24.9907   15.4445 H         1 UNK         0.0831 
    109 H109      -57.2377  -25.1843   13.7527 H         1 UNK         0.0831 
    110 H110      -56.0217  -24.0045   14.2060 H         1 UNK         0.0831 
    111 H111      -53.3065  -25.4115   14.4357 H         1 UNK         0.3133 
    112 H112      -52.3513  -24.3971   16.9623 H         1 UNK         0.0566 
    113 H113      -52.3747  -27.2264   18.1463 H         1 UNK         0.0814 
    114 H114      -51.1927  -25.9764   18.5341 H         1 UNK         0.0814 
    115 H115      -52.8796  -25.7538   18.9628 H         1 UNK         0.0814 
    116 H116      -50.8137  -25.1490   15.5785 H         1 UNK         0.3091 
    117 H117      -49.5286  -28.0568   14.5642 H         1 UNK         0.0702 
    118 H118      -51.3128  -28.5975   12.9365 H         1 UNK         0.0785 
    119 H119      -51.4770  -26.8989   12.4954 H         1 UNK         0.0785 
    120 H120      -49.9956  -27.7734   12.1194 H         1 UNK         0.0785 
    121 H121      -49.5931  -25.4785   13.2194 H         1 UNK         0.2998 
    122 H122      -47.3905  -23.8537   15.4939 H         1 UNK         0.0697 
    123 H123      -47.0163  -24.7127   12.5786 H         1 UNK         0.0825 
    124 H124      -45.8828  -25.0160   13.8845 H         1 UNK         0.0825 
    125 H125      -46.1944  -23.3662   13.3690 H         1 UNK         0.0825 
    126 H126      -48.8002  -23.0517   13.1069 H         1 UNK         0.3029 
    127 H127      -51.7405  -21.8957   14.7676 H         1 UNK         0.0897 
    128 H128      -49.4196  -20.3601   13.4735 H         1 UNK         0.0792 
    129 H129      -50.0467  -20.0840   15.0924 H         1 UNK         0.0792 
    130 H130      -51.0650  -19.7652   13.6994 H         1 UNK         0.0792 
    131 H131      -50.9456  -21.7303   12.0441 H         1 UNK         0.3086 
    132 H132      -52.4313  -24.8141   10.9807 H         1 UNK         0.0583 
    133 H133      -53.2059  -21.8518   10.7504 H         1 UNK         0.1020 
    134 H134      -53.4263  -22.9758    9.4525 H         1 UNK         0.1020 
    135 H135      -56.7070  -24.7227   10.2234 H         1 UNK         0.0694 
    136 H136      -55.9988  -23.5987    9.0880 H         1 UNK         0.0694 
    137 H137      -51.1150  -23.0537    9.3537 H         1 UNK         0.2989 
    138 H138      -48.9793  -24.1495    8.4028 H         1 UNK         0.1055 
    139 H139      -49.3747  -21.7475    8.8902 H         1 UNK         0.0806 
    140 H140      -47.6672  -21.9890    8.5940 H         1 UNK         0.0806 
    141 H141      -48.2507  -21.7925   10.2437 H         1 UNK         0.0806 
    142 H142      -47.0045  -24.0171   10.6422 H         1 UNK         0.3061 
    143 H143      -45.0806  -25.1460   10.4725 H         1 UNK         0.0734 
    144 H144      -45.0547  -27.4537   11.3634 H         1 UNK         0.0832 
    145 H145      -46.6844  -26.8163   11.5101 H         1 UNK         0.0832 
    146 H146      -46.3060  -27.9541   10.2291 H         1 UNK         0.0832 
    147 H147      -44.7563  -27.3273    8.4934 H         1 UNK         0.3156 
    148 H148      -42.6016  -25.4790    6.4116 H         1 UNK         0.0589 
    149 H149      -41.9281  -27.8801    8.2015 H         1 UNK         0.0808 
    150 H150      -41.1130  -27.4494    6.6971 H         1 UNK         0.0808 
    151 H151      -41.0007  -26.3910    8.0929 H         1 UNK         0.0808 
    152 H152      -43.6431  -28.1796    6.4265 H         1 UNK         0.3098 
    153 H153      -45.8577  -27.7307    3.9750 H         1 UNK         0.0720 
    154 H154      -46.1076  -30.0136    4.9403 H         1 UNK         0.0791 
    155 H155      -45.3677  -29.5033    6.4490 H         1 UNK         0.0791 
    156 H156      -44.4206  -29.5490    4.9568 H         1 UNK         0.0791 
    157 H157      -47.0952  -27.0334    6.5112 H         1 UNK         0.3028 
@<TRIPOS>BOND
     1    1    2 1    
     2    1   82 1    
     3    1   83 1    
     4    1   84 1    
     5    2    3 2    
     6    2    4 am   BACKBONE|DICT|INTERRES
     7    4    5 1    
     8    4   85 1    
     9    5    6 1    
    10    5   80 1    
    11    5   86 1    
    12    6    7 1    
    13    6   87 1    
    14    6   88 1    
    15    7    8 1    
    16    8    9 1    
    17    8   89 1    
    18    8   90 1    
    19    9   10 ar   
    20    9   14 ar   
    21   10   11 ar   
    22   10   91 1    
    23   11   12 ar   
    24   11   58 1    
    25   12   13 ar   
    26   12   92 1    
    27   13   14 ar   
    28   13   15 1    
    29   14   93 1    
    30   15   16 1    
    31   15   94 1    
    32   15   95 1    
    33   16   17 1    
    34   17   18 1    
    35   17   96 1    
    36   17   97 1    
    37   18   19 1    
    38   18   22 1    
    39   18   98 1    
    40   19   20 am   BACKBONE|DICT|INTERRES
    41   19   21 2    
    42   20   99 1    
    43   20  100 1    
    44   22   23 am   BACKBONE|DICT|INTERRES
    45   22  101 1    
    46   23   24 2    
    47   23   25 1    
    48   25   26 1    
    49   25   27 1    
    50   25  102 1    
    51   26  103 1    
    52   26  104 1    
    53   26  105 1    
    54   27   28 am   BACKBONE|DICT|INTERRES
    55   27  106 1    
    56   28   29 2    
    57   28   30 1    
    58   30   31 1    
    59   30   32 1    
    60   30  107 1    
    61   31  108 1    
    62   31  109 1    
    63   31  110 1    
    64   32   33 am   BACKBONE|DICT|INTERRES
    65   32  111 1    
    66   33   34 2    
    67   33   35 1    
    68   35   36 1    
    69   35   37 1    
    70   35  112 1    
    71   36  113 1    
    72   36  114 1    
    73   36  115 1    
    74   37   38 am   BACKBONE|DICT|INTERRES
    75   37  116 1    
    76   38   39 2    
    77   38   40 1    
    78   40   41 1    
    79   40   42 1    
    80   40  117 1    
    81   41  118 1    
    82   41  119 1    
    83   41  120 1    
    84   42   43 am   BACKBONE|DICT|INTERRES
    85   42  121 1    
    86   43   44 2    
    87   43   45 1    
    88   45   46 1    
    89   45   47 1    
    90   45  122 1    
    91   46  123 1    
    92   46  124 1    
    93   46  125 1    
    94   47   48 am   BACKBONE|DICT|INTERRES
    95   47  126 1    
    96   48   49 2    
    97   48   50 1    
    98   50   51 1    
    99   50   52 1    
   100   50  127 1    
   101   51  128 1    
   102   51  129 1    
   103   51  130 1    
   104   52   53 am   BACKBONE|DICT|INTERRES
   105   52  131 1    
   106   53   54 2    
   107   53   55 1    
   108   55   56 1    
   109   55   59 1    
   110   55  132 1    
   111   56   57 1    
   112   56  133 1    
   113   56  134 1    
   114   57   58 1    
   115   58  135 1    
   116   58  136 1    
   117   59   60 am   BACKBONE|DICT|INTERRES
   118   59  137 1    
   119   60   61 2    
   120   60   62 1    
   121   62   63 1    
   122   62   64 1    
   123   62  138 1    
   124   63  139 1    
   125   63  140 1    
   126   63  141 1    
   127   64   65 am   BACKBONE|DICT|INTERRES
   128   64  142 1    
   129   65   66 2    
   130   65   67 1    
   131   67   68 1    
   132   67   69 1    
   133   67  143 1    
   134   68  144 1    
   135   68  145 1    
   136   68  146 1    
   137   69   70 am   BACKBONE|DICT|INTERRES
   138   69  147 1    
   139   70   71 2    
   140   70   72 1    
   141   72   73 1    
   142   72   74 1    
   143   72  148 1    
   144   73  149 1    
   145   73  150 1    
   146   73  151 1    
   147   74   75 am   BACKBONE|DICT|INTERRES
   148   74  152 1    
   149   75   76 2    
   150   75   77 1    
   151   77   78 1    
   152   77   79 1    
   153   77  153 1    
   154   78  154 1    
   155   78  155 1    
   156   78  156 1    
   157   79   80 am   BACKBONE|DICT|INTERRES
   158   79  157 1    
   159   80   81 2    
@<TRIPOS>SUBSTRUCTURE
     1 UNK         1 GROUP             0       ****    0 ROOT    
