@<TRIPOS>MOLECULE
3R207
157   159    1
SMALL
USER_CHARGES


@<TRIPOS>ATOM
      1 CA        -49.9757  -29.5696    8.6306 C.3       0 UNK        -0.1975 
      2 C         -49.5055  -28.9892    7.3078 C.2       0 UNK         0.4852 
      3 O         -48.3094  -28.7423    7.1422 O.2       0 UNK        -0.5216 
      4 N         -50.4415  -28.7638    6.3718 N.am      1 UNK        -0.4461 
      5 CA        -50.2111  -28.3343    4.9807 C.3       1 UNK         0.0864 
      6 C6        -51.5219  -28.2321    4.1616 C.3       14 UNK        -0.0898 
      7 S7        -52.4690  -29.7915    4.1250 S.3       14 UNK        -0.2598 
      8 C8        -54.0010  -29.3227    4.9913 C.3       14 UNK         0.0286 
      9 C9        -53.7679  -29.1457    6.4835 C.ar      14 UNK        -0.0844 
     10 C10       -53.5669  -27.8725    7.0242 C.ar      14 UNK        -0.0881 
     11 C11       -53.3278  -27.7173    8.3908 C.ar      14 UNK        -0.0643 
     12 C12       -53.3163  -28.8420    9.2196 C.ar      14 UNK        -0.0930 
     13 C13       -53.5344  -30.1242    8.6987 C.ar      14 UNK        -0.0827 
     14 C14       -53.7531  -30.2621    7.3247 C.ar      14 UNK        -0.1249 
     15 C15       -53.5076  -31.3908    9.5601 C.3       14 UNK         0.0141 
     16 S16       -53.5211  -31.1405   11.3707 S.3       14 UNK        -0.2313 
     17 C17       -55.2437  -30.5953   11.6325 C.3       14 UNK        -0.0915 
     18 CA        -55.5050  -29.9418   13.0212 C.3       13 UNK         0.0968 
     19 C         -55.3888  -30.9350   14.2079 C.2       13 UNK         0.5732 
     20 N         -56.2118  -31.9749   14.2322 N.am      13 UNK        -0.7310 
     21 O         -54.5686  -30.7727   15.1105 O.2       13 UNK        -0.5035 
     22 N         -54.6987  -28.7399   13.2592 N.am      13 UNK        -0.4233 
     23 C         -54.8794  -27.5499   12.6793 C.2       13 UNK         0.4989 
     24 O         -55.7391  -27.3306   11.8251 O.2       13 UNK        -0.4996 
     25 CA        -53.9826  -26.3855   13.1406 C.3       12 UNK         0.0216 
     26 CB        -54.7711  -25.4455   14.0684 C.3       12 UNK        -0.1964 
     27 N         -52.7442  -26.7775   13.8178 N.am      12 UNK        -0.4276 
     28 C         -51.7207  -27.4450   13.2688 C.2       12 UNK         0.5020 
     29 O         -51.7164  -27.8619   12.1136 O.2       12 UNK        -0.5489 
     30 CA        -50.4735  -27.6655   14.1373 C.3       11 UNK         0.0294 
     31 CB        -49.4119  -26.6087   13.7989 C.3       11 UNK        -0.2019 
     32 N         -50.7663  -27.6035   15.5713 N.am      11 UNK        -0.4493 
     33 C         -50.9385  -28.6720   16.3617 C.2       11 UNK         0.4932 
     34 O         -50.8807  -29.8340   15.9595 O.2       11 UNK        -0.5029 
     35 CA        -51.1861  -28.4190   17.8617 C.3       10 UNK         0.0280 
     36 CB        -49.8946  -28.6597   18.6610 C.3       10 UNK        -0.1976 
     37 N         -51.6813  -27.0722   18.1559 N.am      10 UNK        -0.4242 
     38 C         -52.9461  -26.6697   17.9730 C.2       10 UNK         0.5072 
     39 O         -53.8508  -27.4037   17.5751 O.2       10 UNK        -0.5224 
     40 CA        -53.2470  -25.1839   18.2502 C.3       9 UNK         0.0343 
     41 CB        -53.6458  -24.9816   19.7210 C.3       9 UNK        -0.2003 
     42 N         -52.1570  -24.2578   17.9071 N.am      9 UNK        -0.4272 
     43 C         -51.6025  -24.1509   16.6926 C.2       9 UNK         0.4988 
     44 O         -51.8655  -24.9045   15.7548 O.2       9 UNK        -0.5108 
     45 CA        -50.5538  -23.0576   16.4872 C.3       8 UNK         0.0248 
     46 CB        -49.1347  -23.6144   16.7056 C.3       8 UNK        -0.2001 
     47 N         -50.7076  -22.5606   15.1231 N.am      8 UNK        -0.4140 
     48 C         -50.2658  -21.3934   14.6468 C.2       8 UNK         0.5028 
     49 O         -49.5922  -20.6035   15.3119 O.2       8 UNK        -0.5428 
     50 CA        -50.6471  -21.0461   13.1901 C.3       7 UNK         0.0264 
     51 CB        -49.9681  -19.7557   12.6926 C.3       7 UNK        -0.1988 
     52 N         -50.3519  -22.1213   12.2379 N.am      7 UNK        -0.4454 
     53 C         -51.0612  -23.2430   12.0599 C.2       7 UNK         0.5027 
     54 O         -52.0622  -23.5039   12.7262 O.2       7 UNK        -0.5083 
     55 CA        -50.5876  -24.2645   10.9985 C.3       6 UNK         0.0844 
     56 C56       -51.4708  -24.2024    9.7219 C.3       14 UNK        -0.0967 
     57 S57       -51.3956  -25.7523    8.7575 S.3       14 UNK        -0.2604 
     58 C58       -53.1075  -26.3342    8.9798 C.3       14 UNK         0.0134 
     59 N         -49.1419  -24.2255   10.7194 N.am      6 UNK        -0.4116 
     60 C         -48.4341  -23.2666   10.1069 C.2       5 UNK         0.5034 
     61 O         -48.9238  -22.2092    9.7126 O.2       5 UNK        -0.5045 
     62 CA        -46.9242  -23.4918    9.9140 C.3       5 UNK         0.0224 
     63 CB        -46.1171  -22.7942   11.0269 C.3       5 UNK        -0.1978 
     64 N         -46.5236  -24.8972    9.7475 N.am      5 UNK        -0.4737 
     65 C         -46.5292  -25.8961   10.6427 C.2       4 UNK         0.5027 
     66 O         -46.8908  -25.7458   11.8081 O.2       4 UNK        -0.5211 
     67 CA        -46.1384  -27.3075   10.1536 C.3       4 UNK         0.0297 
     68 CB        -47.1336  -28.3591   10.6746 C.3       4 UNK        -0.1993 
     69 N         -46.0747  -27.4023    8.6921 N.am      4 UNK        -0.4486 
     70 C         -45.0291  -27.0361    7.9372 C.2       3 UNK         0.4961 
     71 O         -43.9383  -26.6919    8.3908 O.2       3 UNK        -0.5105 
     72 CA        -45.2777  -26.9676    6.4229 C.3       3 UNK         0.0299 
     73 CB        -45.0393  -28.3366    5.7668 C.3       3 UNK        -0.1972 
     74 N         -46.6396  -26.5134    6.1308 N.am      3 UNK        -0.4305 
     75 C         -47.0823  -25.2536    6.2601 C.2       2 UNK         0.5006 
     76 O         -46.3475  -24.3188    6.5785 O.2       2 UNK        -0.5106 
     77 CA        -48.5916  -24.9761    6.0747 C.3       2 UNK         0.0296 
     78 CB        -48.8472  -23.9181    4.9825 C.3       2 UNK        -0.2002 
     79 N         -49.4203  -26.1730    5.8689 N.am      2 UNK        -0.4032 
     80 C         -49.4005  -27.0285    4.8339 C.2       1 UNK         0.5000 
     81 O         -48.7331  -26.8561    3.8134 O.2       1 UNK        -0.5238 
     82 H82       -49.1573  -30.0790    9.1377 H         1 UNK         0.0889 
     83 H83       -50.7683  -30.2987    8.4738 H         1 UNK         0.0889 
     84 H84       -50.3495  -28.7811    9.2840 H         1 UNK         0.0889 
     85 H85       -51.4069  -28.9767    6.5916 H         1 UNK         0.3028 
     86 H86       -49.5998  -29.1168    4.5262 H         1 UNK         0.0864 
     87 H87       -52.1484  -27.4218    4.5362 H         1 UNK         0.0720 
     88 H88       -51.2981  -27.9756    3.1240 H         1 UNK         0.0720 
     89 H89       -54.7482  -30.1011    4.8299 H         1 UNK         0.0814 
     90 H90       -54.4130  -28.4137    4.5500 H         1 UNK         0.0814 
     91 H91       -53.5866  -27.0005    6.3850 H         1 UNK         0.1469 
     92 H92       -53.1338  -28.7063   10.2742 H         1 UNK         0.1381 
     93 H93       -53.9070  -31.2467    6.9036 H         1 UNK         0.1206 
     94 H94       -52.6089  -31.9543    9.3070 H         1 UNK         0.0813 
     95 H95       -54.3529  -32.0276    9.2946 H         1 UNK         0.0813 
     96 H96       -55.9012  -31.4526   11.4810 H         1 UNK         0.0638 
     97 H97       -55.5068  -29.8882   10.8451 H         1 UNK         0.0638 
     98 H98       -56.5462  -29.6141   13.0364 H         1 UNK         0.0568 
     99 H99       -56.1491  -32.6284   14.9969 H         1 UNK         0.3450 
    100 H100      -56.8917  -32.1213   13.5029 H         1 UNK         0.3450 
    101 H101      -53.9917  -28.8447   13.9746 H         1 UNK         0.2987 
    102 H102      -53.7000  -25.8197   12.2519 H         1 UNK         0.0766 
    103 H103      -55.7013  -25.1193   13.6012 H         1 UNK         0.0798 
    104 H104      -54.1975  -24.5476   14.3001 H         1 UNK         0.0798 
    105 H105      -55.0283  -25.9320   15.0103 H         1 UNK         0.0798 
    106 H106      -52.5906  -26.3587   14.7298 H         1 UNK         0.3198 
    107 H107      -50.0653  -28.6456   13.8803 H         1 UNK         0.0843 
    108 H108      -49.7684  -25.5958   13.9889 H         1 UNK         0.0831 
    109 H109      -49.1438  -26.6688   12.7444 H         1 UNK         0.0831 
    110 H110      -48.4972  -26.7598   14.3721 H         1 UNK         0.0831 
    111 H111      -50.8935  -26.6774   15.9620 H         1 UNK         0.3133 
    112 H112      -51.9313  -29.1437   18.1972 H         1 UNK         0.0566 
    113 H113      -50.0647  -28.5545   19.7327 H         1 UNK         0.0814 
    114 H114      -49.1052  -27.9634   18.3747 H         1 UNK         0.0814 
    115 H115      -49.5144  -29.6686   18.4936 H         1 UNK         0.0814 
    116 H116      -51.0096  -26.3992   18.4957 H         1 UNK         0.3091 
    117 H117      -54.1027  -24.9126   17.6281 H         1 UNK         0.0702 
    118 H118      -53.9791  -23.9602   19.9057 H         1 UNK         0.0785 
    119 H119      -52.8168  -25.1931   20.3976 H         1 UNK         0.0785 
    120 H120      -54.4688  -25.6427   19.9971 H         1 UNK         0.0785 
    121 H121      -51.8681  -23.6146   18.6307 H         1 UNK         0.2998 
    122 H122      -50.7450  -22.2423   17.1880 H         1 UNK         0.0697 
    123 H123      -48.3790  -22.8399   16.5747 H         1 UNK         0.0825 
    124 H124      -48.9059  -24.4225   16.0101 H         1 UNK         0.0825 
    125 H125      -49.0189  -24.0087   17.7159 H         1 UNK         0.0825 
    126 H126      -51.2816  -23.1467   14.5192 H         1 UNK         0.3029 
    127 H127      -51.7256  -20.8732   13.1848 H         1 UNK         0.0897 
    128 H128      -48.8815  -19.8511   12.6820 H         1 UNK         0.0792 
    129 H129      -50.2164  -18.9083   13.3333 H         1 UNK         0.0792 
    130 H130      -50.2921  -19.5000   11.6835 H         1 UNK         0.0792 
    131 H131      -49.5756  -21.9652   11.6056 H         1 UNK         0.3086 
    132 H132      -50.7580  -25.2375   11.4600 H         1 UNK         0.0583 
    133 H133      -52.5131  -24.0079    9.9835 H         1 UNK         0.1020 
    134 H134      -51.1799  -23.3720    9.0775 H         1 UNK         0.1020 
    135 H135      -53.3438  -26.3468   10.0436 H         1 UNK         0.0694 
    136 H136      -53.7954  -25.6239    8.5186 H         1 UNK         0.0694 
    137 H137      -48.6043  -25.0028   11.0878 H         1 UNK         0.2989 
    138 H138      -46.6667  -23.0029    8.9726 H         1 UNK         0.1055 
    139 H139      -46.3539  -23.1873   12.0160 H         1 UNK         0.0806 
    140 H140      -46.3297  -21.7244   11.0478 H         1 UNK         0.0806 
    141 H141      -45.0446  -22.9071   10.8687 H         1 UNK         0.0806 
    142 H142      -46.2197  -25.1308    8.8113 H         1 UNK         0.3061 
    143 H143      -45.1543  -27.5345   10.5686 H         1 UNK         0.0734 
    144 H144      -48.1567  -28.1197   10.3838 H         1 UNK         0.0832 
    145 H145      -46.8974  -29.3547   10.2989 H         1 UNK         0.0832 
    146 H146      -47.1125  -28.4130   11.7640 H         1 UNK         0.0832 
    147 H147      -46.9155  -27.7190    8.2172 H         1 UNK         0.3156 
    148 H148      -44.5726  -26.2529    5.9932 H         1 UNK         0.0589 
    149 H149      -45.7188  -29.0969    6.1544 H         1 UNK         0.0808 
    150 H150      -44.0218  -28.6842    5.9503 H         1 UNK         0.0808 
    151 H151      -45.1746  -28.2864    4.6862 H         1 UNK         0.0808 
    152 H152      -47.3174  -27.2395    5.9342 H         1 UNK         0.3098 
    153 H153      -48.9294  -24.5515    7.0214 H         1 UNK         0.0720 
    154 H154      -49.9103  -23.6980    4.8850 H         1 UNK         0.0791 
    155 H155      -48.4786  -24.2387    4.0079 H         1 UNK         0.0791 
    156 H156      -48.3444  -22.9807    5.2238 H         1 UNK         0.0791 
    157 H157      -50.0038  -26.4263    6.6563 H         1 UNK         0.3028 
@<TRIPOS>BOND
     1    1    2 1    
     2    1   82 1    
     3    1   83 1    
     4    1   84 1    
     5    2    3 2    
     6    2    4 am   BACKBONE|DICT|INTERRES
     7    4    5 1    
     8    4   85 1    
     9    5    6 1    
    10    5   80 1    
    11    5   86 1    
    12    6    7 1    
    13    6   87 1    
    14    6   88 1    
    15    7    8 1    
    16    8    9 1    
    17    8   89 1    
    18    8   90 1    
    19    9   10 ar   
    20    9   14 ar   
    21   10   11 ar   
    22   10   91 1    
    23   11   12 ar   
    24   11   58 1    
    25   12   13 ar   
    26   12   92 1    
    27   13   14 ar   
    28   13   15 1    
    29   14   93 1    
    30   15   16 1    
    31   15   94 1    
    32   15   95 1    
    33   16   17 1    
    34   17   18 1    
    35   17   96 1    
    36   17   97 1    
    37   18   19 1    
    38   18   22 1    
    39   18   98 1    
    40   19   20 am   BACKBONE|DICT|INTERRES
    41   19   21 2    
    42   20   99 1    
    43   20  100 1    
    44   22   23 am   BACKBONE|DICT|INTERRES
    45   22  101 1    
    46   23   24 2    
    47   23   25 1    
    48   25   26 1    
    49   25   27 1    
    50   25  102 1    
    51   26  103 1    
    52   26  104 1    
    53   26  105 1    
    54   27   28 am   BACKBONE|DICT|INTERRES
    55   27  106 1    
    56   28   29 2    
    57   28   30 1    
    58   30   31 1    
    59   30   32 1    
    60   30  107 1    
    61   31  108 1    
    62   31  109 1    
    63   31  110 1    
    64   32   33 am   BACKBONE|DICT|INTERRES
    65   32  111 1    
    66   33   34 2    
    67   33   35 1    
    68   35   36 1    
    69   35   37 1    
    70   35  112 1    
    71   36  113 1    
    72   36  114 1    
    73   36  115 1    
    74   37   38 am   BACKBONE|DICT|INTERRES
    75   37  116 1    
    76   38   39 2    
    77   38   40 1    
    78   40   41 1    
    79   40   42 1    
    80   40  117 1    
    81   41  118 1    
    82   41  119 1    
    83   41  120 1    
    84   42   43 am   BACKBONE|DICT|INTERRES
    85   42  121 1    
    86   43   44 2    
    87   43   45 1    
    88   45   46 1    
    89   45   47 1    
    90   45  122 1    
    91   46  123 1    
    92   46  124 1    
    93   46  125 1    
    94   47   48 am   BACKBONE|DICT|INTERRES
    95   47  126 1    
    96   48   49 2    
    97   48   50 1    
    98   50   51 1    
    99   50   52 1    
   100   50  127 1    
   101   51  128 1    
   102   51  129 1    
   103   51  130 1    
   104   52   53 am   BACKBONE|DICT|INTERRES
   105   52  131 1    
   106   53   54 2    
   107   53   55 1    
   108   55   56 1    
   109   55   59 1    
   110   55  132 1    
   111   56   57 1    
   112   56  133 1    
   113   56  134 1    
   114   57   58 1    
   115   58  135 1    
   116   58  136 1    
   117   59   60 am   BACKBONE|DICT|INTERRES
   118   59  137 1    
   119   60   61 2    
   120   60   62 1    
   121   62   63 1    
   122   62   64 1    
   123   62  138 1    
   124   63  139 1    
   125   63  140 1    
   126   63  141 1    
   127   64   65 am   BACKBONE|DICT|INTERRES
   128   64  142 1    
   129   65   66 2    
   130   65   67 1    
   131   67   68 1    
   132   67   69 1    
   133   67  143 1    
   134   68  144 1    
   135   68  145 1    
   136   68  146 1    
   137   69   70 am   BACKBONE|DICT|INTERRES
   138   69  147 1    
   139   70   71 2    
   140   70   72 1    
   141   72   73 1    
   142   72   74 1    
   143   72  148 1    
   144   73  149 1    
   145   73  150 1    
   146   73  151 1    
   147   74   75 am   BACKBONE|DICT|INTERRES
   148   74  152 1    
   149   75   76 2    
   150   75   77 1    
   151   77   78 1    
   152   77   79 1    
   153   77  153 1    
   154   78  154 1    
   155   78  155 1    
   156   78  156 1    
   157   79   80 am   BACKBONE|DICT|INTERRES
   158   79  157 1    
   159   80   81 2    
@<TRIPOS>SUBSTRUCTURE
     1 UNK         1 GROUP             0       ****    0 ROOT    
