@<TRIPOS>MOLECULE
3R207
157   159    1
SMALL
USER_CHARGES


@<TRIPOS>ATOM
      1 CA        -46.8031  -31.8511    2.4746 C.3       0 UNK        -0.1975 
      2 C         -46.9205  -30.9139    3.6681 C.2       0 UNK         0.4852 
      3 O         -45.9550  -30.7630    4.4182 O.2       0 UNK        -0.5216 
      4 N         -48.0973  -30.2953    3.8453 N.am      1 UNK        -0.4461 
      5 CA        -48.4204  -29.3145    4.8910 C.3       1 UNK         0.0864 
      6 C6        -48.2685  -29.9015    6.3275 C.3       14 UNK        -0.0898 
      7 S7        -49.3570  -29.1123    7.5583 S.3       14 UNK        -0.2598 
      8 C8        -50.9081  -30.0322    7.3163 C.3       14 UNK         0.0286 
      9 C9        -52.0776  -29.3605    8.0235 C.ar      14 UNK        -0.0844 
     10 C10       -52.3494  -28.0054    7.8014 C.ar      14 UNK        -0.0881 
     11 C11       -53.4368  -27.3868    8.4204 C.ar      14 UNK        -0.0643 
     12 C12       -54.2710  -28.1414    9.2480 C.ar      14 UNK        -0.0930 
     13 C13       -54.0059  -29.4919    9.4954 C.ar      14 UNK        -0.0827 
     14 C14       -52.9080  -30.0976    8.8754 C.ar      14 UNK        -0.1249 
     15 C15       -54.9250  -30.2936   10.4092 C.3       14 UNK         0.0141 
     16 S16       -54.0952  -30.7966   11.9531 S.3       14 UNK        -0.2313 
     17 C17       -55.5297  -31.1802   13.0265 C.3       14 UNK        -0.0915 
     18 CA        -55.4548  -30.5312   14.4430 C.3       13 UNK         0.0968 
     19 C         -54.5631  -31.3263   15.4403 C.2       13 UNK         0.5732 
     20 N         -53.7023  -30.6946   16.2312 N.am      13 UNK        -0.7310 
     21 O         -54.6731  -32.5474   15.5252 O.2       13 UNK        -0.5035 
     22 N         -55.1379  -29.0998   14.3841 N.am      13 UNK        -0.4233 
     23 C         -55.9653  -28.1277   14.0006 C.2       13 UNK         0.4989 
     24 O         -57.1716  -28.2698   13.7854 O.2       13 UNK        -0.4996 
     25 CA        -55.3009  -26.7737   13.7505 C.3       12 UNK         0.0216 
     26 CB        -54.7506  -26.7233   12.3177 C.3       12 UNK        -0.1964 
     27 N         -56.2668  -25.7040   13.9802 N.am      12 UNK        -0.4276 
     28 C         -56.0636  -24.3865   14.1312 C.2       12 UNK         0.5020 
     29 O         -57.0178  -23.6294   14.3131 O.2       12 UNK        -0.5489 
     30 CA        -54.6298  -23.7889   14.0826 C.3       11 UNK         0.0294 
     31 CB        -54.6216  -22.2563   14.2713 C.3       11 UNK        -0.2019 
     32 N         -53.6736  -24.3978   15.0182 N.am      11 UNK        -0.4493 
     33 C         -53.8290  -24.5640   16.3416 C.2       11 UNK         0.4932 
     34 O         -54.8335  -24.2162   16.9643 O.2       11 UNK        -0.5029 
     35 CA        -52.6532  -25.1891   17.1137 C.3       10 UNK         0.0280 
     36 CB        -53.0844  -25.8885   18.4220 C.3       10 UNK        -0.1976 
     37 N         -51.7788  -26.0392   16.2976 N.am      10 UNK        -0.4242 
     38 C         -51.9858  -27.2989   15.8806 C.2       10 UNK         0.5072 
     39 O         -53.0275  -27.9263   16.0802 O.2       10 UNK        -0.5224 
     40 CA        -50.8513  -28.0068   15.1091 C.3       9 UNK         0.0343 
     41 CB        -51.3641  -28.5862   13.7781 C.3       9 UNK        -0.2003 
     42 N         -49.6866  -27.1573   14.8485 N.am      9 UNK        -0.4272 
     43 C         -48.7700  -26.7874   15.7541 C.2       9 UNK         0.4988 
     44 O         -48.7442  -27.2065   16.9113 O.2       9 UNK        -0.5108 
     45 CA        -47.7447  -25.7250   15.3160 C.3       8 UNK         0.0248 
     46 CB        -46.4805  -26.3959   14.7576 C.3       8 UNK        -0.2001 
     47 N         -48.2758  -24.7617   14.3410 N.am      8 UNK        -0.4140 
     48 C         -49.3030  -23.9290   14.5732 C.2       8 UNK         0.5028 
     49 O         -49.8933  -23.8630   15.6515 O.2       8 UNK        -0.5428 
     50 CA        -49.7963  -23.0644   13.3997 C.3       7 UNK         0.0264 
     51 CB        -48.8720  -21.8584   13.1713 C.3       7 UNK        -0.1988 
     52 N         -49.9458  -23.8252   12.1566 N.am      7 UNK        -0.4454 
     53 C         -50.8137  -24.8353   11.9860 C.2       7 UNK         0.5027 
     54 O         -51.6169  -25.1866   12.8533 O.2       7 UNK        -0.5083 
     55 CA        -50.7233  -25.6170   10.6519 C.3       6 UNK         0.0844 
     56 C56       -51.4180  -24.8730    9.4820 C.3       14 UNK        -0.0967 
     57 S57       -53.2398  -24.8692    9.5900 S.3       14 UNK        -0.2604 
     58 C58       -53.7286  -25.9126    8.1775 C.3       14 UNK         0.0134 
     59 N         -49.3322  -25.9399   10.3128 N.am      6 UNK        -0.4116 
     60 C         -48.4937  -26.6682   11.0638 C.2       5 UNK         0.5034 
     61 O         -48.8243  -27.2429   12.0985 O.2       5 UNK        -0.5045 
     62 CA        -47.0166  -26.7002   10.6349 C.3       5 UNK         0.0224 
     63 CB        -46.7441  -27.7813    9.5802 C.3       5 UNK        -0.1978 
     64 N         -46.5549  -25.4008   10.1443 N.am      5 UNK        -0.4737 
     65 C         -46.3510  -24.3329   10.9269 C.2       4 UNK         0.5027 
     66 O         -46.4857  -24.3483   12.1488 O.2       4 UNK        -0.5211 
     67 CA        -45.9718  -23.0191   10.2243 C.3       4 UNK         0.0297 
     68 CB        -44.4563  -22.9568    9.9780 C.3       4 UNK        -0.1993 
     69 N         -46.6855  -22.8313    8.9588 N.am      4 UNK        -0.4486 
     70 C         -48.0110  -22.6571    8.8568 C.2       3 UNK         0.4961 
     71 O         -48.7693  -22.5876    9.8235 O.2       3 UNK        -0.5105 
     72 CA        -48.5933  -22.6110    7.4334 C.3       3 UNK         0.0299 
     73 CB        -48.5004  -21.1899    6.8562 C.3       3 UNK        -0.1972 
     74 N         -47.9534  -23.5634    6.5172 N.am      3 UNK        -0.4305 
     75 C         -47.9755  -24.8933    6.6773 C.2       2 UNK         0.5006 
     76 O         -48.5372  -25.4602    7.6178 O.2       2 UNK        -0.5106 
     77 CA        -47.2014  -25.7263    5.6521 C.3       2 UNK         0.0296 
     78 CB        -45.6986  -25.7497    5.9878 C.3       2 UNK        -0.2002 
     79 N         -47.7342  -27.0848    5.6706 N.am      2 UNK        -0.4032 
     80 C         -47.6960  -27.9624    4.6637 C.2       1 UNK         0.5000 
     81 O         -47.1639  -27.7166    3.5764 O.2       1 UNK        -0.5238 
     82 H82       -47.7304  -31.9054    1.9044 H         1 UNK         0.0889 
     83 H83       -46.5528  -32.8570    2.8106 H         1 UNK         0.0889 
     84 H84       -46.0138  -31.5085    1.8059 H         1 UNK         0.0889 
     85 H85       -48.8307  -30.4484    3.1671 H         1 UNK         0.3028 
     86 H86       -49.4769  -29.0945    4.7322 H         1 UNK         0.0864 
     87 H87       -48.4986  -30.9683    6.3261 H         1 UNK         0.0720 
     88 H88       -47.2355  -29.8267    6.6725 H         1 UNK         0.0720 
     89 H89       -50.7710  -31.0546    7.6717 H         1 UNK         0.0814 
     90 H90       -51.1370  -30.0979    6.2521 H         1 UNK         0.0814 
     91 H91       -51.7101  -27.4316    7.1445 H         1 UNK         0.1469 
     92 H92       -55.1313  -27.6698    9.6979 H         1 UNK         0.1381 
     93 H93       -52.7076  -31.1452    9.0544 H         1 UNK         0.1206 
     94 H94       -55.2783  -31.1826    9.8851 H         1 UNK         0.0813 
     95 H95       -55.8112  -29.7048   10.6506 H         1 UNK         0.0813 
     96 H96       -55.6364  -32.2643   13.0900 H         1 UNK         0.0638 
     97 H97       -56.4416  -30.8371   12.5370 H         1 UNK         0.0638 
     98 H98       -56.4512  -30.6106   14.8814 H         1 UNK         0.0568 
     99 H99       -53.1530  -31.2427   16.8731 H         1 UNK         0.3450 
    100 H100      -53.5990  -29.6843   16.2281 H         1 UNK         0.3450 
    101 H101      -54.1816  -28.8601   14.6135 H         1 UNK         0.2987 
    102 H102      -54.4823  -26.6901   14.4555 H         1 UNK         0.0766 
    103 H103      -54.0308  -25.9225   12.1835 H         1 UNK         0.0798 
    104 H104      -55.5518  -26.5814   11.5933 H         1 UNK         0.0798 
    105 H105      -54.2240  -27.6436   12.0620 H         1 UNK         0.0798 
    106 H106      -57.2160  -26.0513   14.0416 H         1 UNK         0.3198 
    107 H107      -54.2481  -23.9692   13.0793 H         1 UNK         0.0843 
    108 H108      -53.6160  -21.8495   14.1647 H         1 UNK         0.0831 
    109 H109      -54.9980  -21.9677   15.2533 H         1 UNK         0.0831 
    110 H110      -55.2477  -21.7661   13.5247 H         1 UNK         0.0831 
    111 H111      -52.8202  -24.7412   14.5890 H         1 UNK         0.3133 
    112 H112      -52.0268  -24.3450   17.4048 H         1 UNK         0.0566 
    113 H113      -52.2304  -26.3225   18.9418 H         1 UNK         0.0814 
    114 H114      -53.5523  -25.1803   19.1068 H         1 UNK         0.0814 
    115 H115      -53.8081  -26.6831   18.2392 H         1 UNK         0.0814 
    116 H116      -50.9079  -25.5907   16.0305 H         1 UNK         0.3091 
    117 H117      -50.5238  -28.8424   15.7306 H         1 UNK         0.0702 
    118 H118      -52.1476  -29.3251   13.9445 H         1 UNK         0.0785 
    119 H119      -50.5670  -29.0901   13.2313 H         1 UNK         0.0785 
    120 H120      -51.7748  -27.8132   13.1286 H         1 UNK         0.0785 
    121 H121      -49.5761  -26.8316   13.8927 H         1 UNK         0.2998 
    122 H122      -47.4615  -25.1592   16.2058 H         1 UNK         0.0697 
    123 H123      -46.7002  -26.9922   13.8727 H         1 UNK         0.0825 
    124 H124      -46.0354  -27.0634   15.4966 H         1 UNK         0.0825 
    125 H125      -45.7233  -25.6592   14.4888 H         1 UNK         0.0825 
    126 H126      -47.7963  -24.7099   13.4444 H         1 UNK         0.3029 
    127 H127      -50.7841  -22.6832   13.6685 H         1 UNK         0.0897 
    128 H128      -49.2587  -21.2066   12.3876 H         1 UNK         0.0792 
    129 H129      -48.7831  -21.2587   14.0781 H         1 UNK         0.0792 
    130 H130      -47.8666  -22.1646   12.8832 H         1 UNK         0.0792 
    131 H131      -49.3582  -23.5460   11.3745 H         1 UNK         0.3086 
    132 H132      -51.2342  -26.5718   10.7964 H         1 UNK         0.0583 
    133 H133      -51.0762  -23.8391    9.4183 H         1 UNK         0.1020 
    134 H134      -51.1318  -25.3303    8.5339 H         1 UNK         0.1020 
    135 H135      -54.7980  -25.7841    8.0045 H         1 UNK         0.0694 
    136 H136      -53.2321  -25.5591    7.2724 H         1 UNK         0.0694 
    137 H137      -48.9822  -25.5677    9.4340 H         1 UNK         0.2989 
    138 H138      -46.4313  -26.9538   11.5210 H         1 UNK         0.1055 
    139 H139      -47.1554  -28.7438    9.8879 H         1 UNK         0.0806 
    140 H140      -45.6741  -27.9207    9.4260 H         1 UNK         0.0806 
    141 H141      -47.1855  -27.5271    8.6187 H         1 UNK         0.0806 
    142 H142      -46.4695  -25.2913    9.1451 H         1 UNK         0.3061 
    143 H143      -46.2441  -22.1969   10.8896 H         1 UNK         0.0734 
    144 H144      -44.1620  -21.9971    9.5529 H         1 UNK         0.0832 
    145 H145      -43.9060  -23.0770   10.9124 H         1 UNK         0.0832 
    146 H146      -44.1213  -23.7429    9.3001 H         1 UNK         0.0832 
    147 H147      -46.1388  -22.8677    8.1111 H         1 UNK         0.3156 
    148 H148      -49.6496  -22.8793    7.5023 H         1 UNK         0.0589 
    149 H149      -47.4658  -20.8684    6.7299 H         1 UNK         0.0808 
    150 H150      -48.9945  -21.1221    5.8867 H         1 UNK         0.0808 
    151 H151      -48.9869  -20.4696    7.5157 H         1 UNK         0.0808 
    152 H152      -47.4686  -23.1745    5.7206 H         1 UNK         0.3098 
    153 H153      -47.3556  -25.2890    4.6633 H         1 UNK         0.0720 
    154 H154      -45.1390  -26.3278    5.2521 H         1 UNK         0.0791 
    155 H155      -45.5104  -26.1905    6.9675 H         1 UNK         0.0791 
    156 H156      -45.2772  -24.7438    5.9923 H         1 UNK         0.0791 
    157 H157      -48.2448  -27.3230    6.5152 H         1 UNK         0.3028 
@<TRIPOS>BOND
     1    1    2 1    
     2    1   82 1    
     3    1   83 1    
     4    1   84 1    
     5    2    3 2    
     6    2    4 am   BACKBONE|DICT|INTERRES
     7    4    5 1    
     8    4   85 1    
     9    5    6 1    
    10    5   80 1    
    11    5   86 1    
    12    6    7 1    
    13    6   87 1    
    14    6   88 1    
    15    7    8 1    
    16    8    9 1    
    17    8   89 1    
    18    8   90 1    
    19    9   10 ar   
    20    9   14 ar   
    21   10   11 ar   
    22   10   91 1    
    23   11   12 ar   
    24   11   58 1    
    25   12   13 ar   
    26   12   92 1    
    27   13   14 ar   
    28   13   15 1    
    29   14   93 1    
    30   15   16 1    
    31   15   94 1    
    32   15   95 1    
    33   16   17 1    
    34   17   18 1    
    35   17   96 1    
    36   17   97 1    
    37   18   19 1    
    38   18   22 1    
    39   18   98 1    
    40   19   20 am   BACKBONE|DICT|INTERRES
    41   19   21 2    
    42   20   99 1    
    43   20  100 1    
    44   22   23 am   BACKBONE|DICT|INTERRES
    45   22  101 1    
    46   23   24 2    
    47   23   25 1    
    48   25   26 1    
    49   25   27 1    
    50   25  102 1    
    51   26  103 1    
    52   26  104 1    
    53   26  105 1    
    54   27   28 am   BACKBONE|DICT|INTERRES
    55   27  106 1    
    56   28   29 2    
    57   28   30 1    
    58   30   31 1    
    59   30   32 1    
    60   30  107 1    
    61   31  108 1    
    62   31  109 1    
    63   31  110 1    
    64   32   33 am   BACKBONE|DICT|INTERRES
    65   32  111 1    
    66   33   34 2    
    67   33   35 1    
    68   35   36 1    
    69   35   37 1    
    70   35  112 1    
    71   36  113 1    
    72   36  114 1    
    73   36  115 1    
    74   37   38 am   BACKBONE|DICT|INTERRES
    75   37  116 1    
    76   38   39 2    
    77   38   40 1    
    78   40   41 1    
    79   40   42 1    
    80   40  117 1    
    81   41  118 1    
    82   41  119 1    
    83   41  120 1    
    84   42   43 am   BACKBONE|DICT|INTERRES
    85   42  121 1    
    86   43   44 2    
    87   43   45 1    
    88   45   46 1    
    89   45   47 1    
    90   45  122 1    
    91   46  123 1    
    92   46  124 1    
    93   46  125 1    
    94   47   48 am   BACKBONE|DICT|INTERRES
    95   47  126 1    
    96   48   49 2    
    97   48   50 1    
    98   50   51 1    
    99   50   52 1    
   100   50  127 1    
   101   51  128 1    
   102   51  129 1    
   103   51  130 1    
   104   52   53 am   BACKBONE|DICT|INTERRES
   105   52  131 1    
   106   53   54 2    
   107   53   55 1    
   108   55   56 1    
   109   55   59 1    
   110   55  132 1    
   111   56   57 1    
   112   56  133 1    
   113   56  134 1    
   114   57   58 1    
   115   58  135 1    
   116   58  136 1    
   117   59   60 am   BACKBONE|DICT|INTERRES
   118   59  137 1    
   119   60   61 2    
   120   60   62 1    
   121   62   63 1    
   122   62   64 1    
   123   62  138 1    
   124   63  139 1    
   125   63  140 1    
   126   63  141 1    
   127   64   65 am   BACKBONE|DICT|INTERRES
   128   64  142 1    
   129   65   66 2    
   130   65   67 1    
   131   67   68 1    
   132   67   69 1    
   133   67  143 1    
   134   68  144 1    
   135   68  145 1    
   136   68  146 1    
   137   69   70 am   BACKBONE|DICT|INTERRES
   138   69  147 1    
   139   70   71 2    
   140   70   72 1    
   141   72   73 1    
   142   72   74 1    
   143   72  148 1    
   144   73  149 1    
   145   73  150 1    
   146   73  151 1    
   147   74   75 am   BACKBONE|DICT|INTERRES
   148   74  152 1    
   149   75   76 2    
   150   75   77 1    
   151   77   78 1    
   152   77   79 1    
   153   77  153 1    
   154   78  154 1    
   155   78  155 1    
   156   78  156 1    
   157   79   80 am   BACKBONE|DICT|INTERRES
   158   79  157 1    
   159   80   81 2    
@<TRIPOS>SUBSTRUCTURE
     1 UNK         1 GROUP             0       ****    0 ROOT    
