@<TRIPOS>MOLECULE
3R207
157   159    1
SMALL
USER_CHARGES


@<TRIPOS>ATOM
      1 CA        -48.6802  -27.5748   -0.4233 C.3       0 UNK        -0.1975 
      2 C         -49.3384  -26.9711    0.8086 C.2       0 UNK         0.4852 
      3 O         -49.7704  -25.8186    0.7673 O.2       0 UNK        -0.5216 
      4 N         -49.4187  -27.7413    1.9031 N.am      1 UNK        -0.4461 
      5 CA        -50.0033  -27.3237    3.1838 C.3       1 UNK         0.0864 
      6 C6        -50.2635  -28.5518    4.0974 C.3       14 UNK        -0.0898 
      7 S7        -51.3645  -28.1822    5.5028 S.3       14 UNK        -0.2598 
      8 C8        -51.5586  -29.8285    6.2586 C.3       14 UNK         0.0286 
      9 C9        -52.0964  -29.7243    7.6808 C.ar      14 UNK        -0.0844 
     10 C10       -51.3375  -30.1848    8.7631 C.ar      14 UNK        -0.0881 
     11 C11       -51.8142  -30.0566   10.0723 C.ar      14 UNK        -0.0643 
     12 C12       -53.0599  -29.4628   10.2935 C.ar      14 UNK        -0.0930 
     13 C13       -53.8364  -29.0159    9.2209 C.ar      14 UNK        -0.0827 
     14 C14       -53.3528  -29.1570    7.9176 C.ar      14 UNK        -0.1249 
     15 C15       -55.1781  -28.3419    9.4676 C.3       14 UNK         0.0141 
     16 S16       -56.5833  -29.4870    9.2785 S.3       14 UNK        -0.2313 
     17 C17       -56.4897  -30.5032   10.7926 C.3       14 UNK        -0.0915 
     18 CA        -57.4347  -29.9963   11.9128 C.3       13 UNK         0.0968 
     19 C         -57.5159  -31.0243   13.0736 C.2       13 UNK         0.5732 
     20 N         -58.4315  -31.9797   12.9914 N.am      13 UNK        -0.7310 
     21 O         -56.7353  -30.9881   14.0238 O.2       13 UNK        -0.5035 
     22 N         -57.0241  -28.6704   12.3862 N.am      13 UNK        -0.4233 
     23 C         -57.7563  -27.8436   13.1361 C.2       13 UNK         0.4989 
     24 O         -58.9228  -28.0667   13.4666 O.2       13 UNK        -0.4996 
     25 CA        -57.0476  -26.5525   13.5950 C.3       12 UNK         0.0216 
     26 CB        -58.0104  -25.5545   14.2654 C.3       12 UNK        -0.1964 
     27 N         -55.9354  -26.8223   14.5112 N.am      12 UNK        -0.4276 
     28 C         -54.7593  -27.3740   14.1875 C.2       12 UNK         0.5020 
     29 O         -54.4506  -27.7011   13.0396 O.2       12 UNK        -0.5489 
     30 CA        -53.7576  -27.5536   15.3383 C.3       11 UNK         0.0294 
     31 CB        -52.6631  -28.5861   15.0124 C.3       11 UNK        -0.2019 
     32 N         -53.1279  -26.2745   15.6564 N.am      11 UNK        -0.4493 
     33 C         -53.6755  -25.3075   16.4045 C.2       11 UNK         0.4932 
     34 O         -54.7890  -25.4022   16.9261 O.2       11 UNK        -0.5029 
     35 CA        -52.8319  -24.0306   16.5925 C.3       10 UNK         0.0280 
     36 CB        -53.3586  -23.1111   17.7145 C.3       10 UNK        -0.1976 
     37 N         -51.4061  -24.3273   16.7722 N.am      10 UNK        -0.4242 
     38 C         -50.8366  -25.0440   17.7547 C.2       10 UNK         0.5072 
     39 O         -51.4465  -25.4764   18.7339 O.2       10 UNK        -0.5224 
     40 CA        -49.3363  -25.3713   17.6193 C.3       9 UNK         0.0343 
     41 CB        -49.1510  -26.8634   17.2954 C.3       9 UNK        -0.2003 
     42 N         -48.6423  -24.5761   16.6022 N.am      9 UNK        -0.4272 
     43 C         -48.3291  -23.2789   16.7288 C.2       9 UNK         0.4988 
     44 O         -48.5343  -22.6212   17.7494 O.2       9 UNK        -0.5108 
     45 CA        -47.7097  -22.5898   15.5003 C.3       8 UNK         0.0248 
     46 CB        -46.1927  -22.8320   15.4534 C.3       8 UNK        -0.2001 
     47 N         -48.3181  -23.0060   14.2315 N.am      8 UNK        -0.4140 
     48 C         -49.6021  -22.8063   13.8962 C.2       8 UNK         0.5028 
     49 O         -50.4155  -22.2257   14.6148 O.2       8 UNK        -0.5428 
     50 CA        -50.0789  -23.4011   12.5599 C.3       7 UNK         0.0264 
     51 CB        -49.6070  -22.5497   11.3708 C.3       7 UNK        -0.1988 
     52 N         -49.6525  -24.7900   12.3800 N.am      7 UNK        -0.4454 
     53 C         -50.0235  -25.8058   13.1748 C.2       7 UNK         0.5027 
     54 O         -50.8138  -25.6929   14.1124 O.2       7 UNK        -0.5083 
     55 CA        -49.3691  -27.1718   12.9048 C.3       6 UNK         0.0844 
     56 C56       -50.1256  -27.9216   11.7836 C.3       14 UNK        -0.0967 
     57 S57       -49.4673  -29.6007   11.5068 S.3       14 UNK        -0.2604 
     58 C58       -50.9920  -30.5635   11.2513 C.3       14 UNK         0.0134 
     59 N         -47.9371  -27.0234   12.6264 N.am      6 UNK        -0.4116 
     60 C         -47.0248  -26.6058   13.5154 C.2       5 UNK         0.5034 
     61 O         -47.2828  -26.3249   14.6851 O.2       5 UNK        -0.5045 
     62 CA        -45.5879  -26.4258   12.9989 C.3       5 UNK         0.0224 
     63 CB        -44.8551  -27.7757   12.9467 C.3       5 UNK        -0.1978 
     64 N         -45.5377  -25.7847   11.6821 N.am      5 UNK        -0.4737 
     65 C         -45.9389  -24.5290   11.4366 C.2       4 UNK         0.5027 
     66 O         -46.3462  -23.7607   12.3061 O.2       4 UNK        -0.5211 
     67 CA        -45.9324  -24.0685    9.9688 C.3       4 UNK         0.0297 
     68 CB        -44.5657  -23.4741    9.5962 C.3       4 UNK        -0.1993 
     69 N         -46.2824  -25.1288    9.0181 N.am      4 UNK        -0.4486 
     70 C         -47.4295  -25.8199    9.0165 C.2       3 UNK         0.4961 
     71 O         -48.3392  -25.6382    9.8291 O.2       3 UNK        -0.5105 
     72 CA        -47.5606  -26.8934    7.9239 C.3       3 UNK         0.0299 
     73 CB        -48.7954  -27.7885    8.1091 C.3       3 UNK        -0.1972 
     74 N         -47.6141  -26.2962    6.5920 N.am      3 UNK        -0.4305 
     75 C         -46.5616  -25.9101    5.8608 C.2       2 UNK         0.5006 
     76 O         -45.4033  -25.9444    6.2826 O.2       2 UNK        -0.5106 
     77 CA        -46.8526  -25.4340    4.4199 C.3       2 UNK         0.0296 
     78 CB        -45.5779  -25.3409    3.5601 C.3       2 UNK        -0.2002 
     79 N         -47.8230  -26.3003    3.7379 N.am      2 UNK        -0.4032 
     80 C         -49.1537  -26.2473    3.8998 C.2       1 UNK         0.5000 
     81 O         -49.7060  -25.4063    4.6117 O.2       1 UNK        -0.5238 
     82 H82       -49.3825  -27.5851   -1.2563 H         1 UNK         0.0889 
     83 H83       -48.3468  -28.5975   -0.2488 H         1 UNK         0.0889 
     84 H84       -47.8143  -26.9810   -0.7148 H         1 UNK         0.0889 
     85 H85       -49.0589  -28.6850    1.8685 H         1 UNK         0.3028 
     86 H86       -50.9685  -26.8646    2.9572 H         1 UNK         0.0864 
     87 H87       -49.3260  -28.9641    4.4759 H         1 UNK         0.0720 
     88 H88       -50.7358  -29.3483    3.5197 H         1 UNK         0.0720 
     89 H89       -50.5969  -30.3439    6.2509 H         1 UNK         0.0814 
     90 H90       -52.2395  -30.4281    5.6530 H         1 UNK         0.0814 
     91 H91       -50.3670  -30.6310    8.5940 H         1 UNK         0.1469 
     92 H92       -53.4250  -29.3458   11.3044 H         1 UNK         0.1381 
     93 H93       -53.9447  -28.8017    7.0849 H         1 UNK         0.1206 
     94 H94       -55.3036  -27.5235    8.7571 H         1 UNK         0.0813 
     95 H95       -55.1995  -27.8800   10.4542 H         1 UNK         0.0813 
     96 H96       -56.7601  -31.5203   10.5029 H         1 UNK         0.0638 
     97 H97       -55.4612  -30.5595   11.1487 H         1 UNK         0.0638 
     98 H98       -58.4374  -29.8947   11.4925 H         1 UNK         0.0568 
     99 H99       -59.0685  -32.0269   12.2113 H         1 UNK         0.3450 
    100 H100      -58.4904  -32.6652   13.7280 H         1 UNK         0.3450 
    101 H101      -56.0407  -28.4397   12.2803 H         1 UNK         0.2987 
    102 H102      -56.6434  -26.0723   12.7011 H         1 UNK         0.0766 
    103 H103      -57.5044  -24.6215   14.5147 H         1 UNK         0.0798 
    104 H104      -58.4385  -25.9592   15.1835 H         1 UNK         0.0798 
    105 H105      -58.8388  -25.3041   13.6012 H         1 UNK         0.0798 
    106 H106      -56.0639  -26.5391   15.4755 H         1 UNK         0.3198 
    107 H107      -54.3046  -27.9151   16.2120 H         1 UNK         0.0843 
    108 H108      -52.0520  -28.2735   14.1674 H         1 UNK         0.0831 
    109 H109      -53.1018  -29.5518   14.7581 H         1 UNK         0.0831 
    110 H110      -52.0000  -28.7424   15.8634 H         1 UNK         0.0831 
    111 H111      -52.2399  -26.0807   15.1948 H         1 UNK         0.3133 
    112 H112      -52.9059  -23.4790   15.6542 H         1 UNK         0.0566 
    113 H113      -52.7445  -22.2160   17.8133 H         1 UNK         0.0814 
    114 H114      -54.3772  -22.7834   17.5035 H         1 UNK         0.0814 
    115 H115      -53.3751  -23.6163   18.6806 H         1 UNK         0.0814 
    116 H116      -50.8110  -24.0301   16.0085 H         1 UNK         0.3091 
    117 H117      -48.8706  -25.1712   18.5865 H         1 UNK         0.0702 
    118 H118      -48.0956  -27.1347   17.2637 H         1 UNK         0.0785 
    119 H119      -49.5927  -27.1226   16.3323 H         1 UNK         0.0785 
    120 H120      -49.6238  -27.4921   18.0511 H         1 UNK         0.0785 
    121 H121      -48.3653  -25.0665   15.7564 H         1 UNK         0.2998 
    122 H122      -47.8783  -21.5162   15.6063 H         1 UNK         0.0697 
    123 H123      -45.9570  -23.8870   15.3095 H         1 UNK         0.0825 
    124 H124      -45.7161  -22.5135   16.3815 H         1 UNK         0.0825 
    125 H125      -45.7272  -22.2728   14.6416 H         1 UNK         0.0825 
    126 H126      -47.6978  -23.4467   13.5545 H         1 UNK         0.3029 
    127 H127      -51.1712  -23.3941   12.5675 H         1 UNK         0.0897 
    128 H128      -48.5201  -22.4991   11.3126 H         1 UNK         0.0792 
    129 H129      -49.9756  -21.5266   11.4555 H         1 UNK         0.0792 
    130 H130      -49.9737  -22.9503   10.4254 H         1 UNK         0.0792 
    131 H131      -49.0335  -24.9872   11.5983 H         1 UNK         0.3086 
    132 H132      -49.4623  -27.7591   13.8210 H         1 UNK         0.0583 
    133 H133      -51.1862  -27.9925   12.0303 H         1 UNK         0.1020 
    134 H134      -50.0810  -27.3718   10.8423 H         1 UNK         0.1020 
    135 H135      -50.7245  -31.6066   11.0775 H         1 UNK         0.0694 
    136 H136      -51.5789  -30.5481   12.1713 H         1 UNK         0.0694 
    137 H137      -47.6484  -27.1945   11.6749 H         1 UNK         0.2989 
    138 H138      -45.0647  -25.7789   13.7069 H         1 UNK         0.1055 
    139 H139      -44.8671  -28.2626   13.9230 H         1 UNK         0.0806 
    140 H140      -43.8099  -27.6489   12.6637 H         1 UNK         0.0806 
    141 H141      -45.3154  -28.4623   12.2350 H         1 UNK         0.0806 
    142 H142      -45.2121  -26.3430   10.9063 H         1 UNK         0.3061 
    143 H143      -46.6839  -23.2829    9.8696 H         1 UNK         0.0734 
    144 H144      -44.5749  -23.0572    8.5889 H         1 UNK         0.0832 
    145 H145      -44.2938  -22.6661   10.2771 H         1 UNK         0.0832 
    146 H146      -43.7725  -24.2213    9.6436 H         1 UNK         0.0832 
    147 H147      -45.6184  -25.3287    8.2769 H         1 UNK         0.3156 
    148 H148      -46.6799  -27.5361    7.9883 H         1 UNK         0.0589 
    149 H149      -48.7450  -28.3186    9.0576 H         1 UNK         0.0808 
    150 H150      -49.7245  -27.2168    8.0983 H         1 UNK         0.0808 
    151 H151      -48.8577  -28.5446    7.3269 H         1 UNK         0.0808 
    152 H152      -48.5361  -26.1546    6.1943 H         1 UNK         0.3098 
    153 H153      -47.2713  -24.4283    4.4978 H         1 UNK         0.0720 
    154 H154      -45.8017  -24.9768    2.5571 H         1 UNK         0.0791 
    155 H155      -45.0838  -26.3086    3.4645 H         1 UNK         0.0791 
    156 H156      -44.8582  -24.6485    3.9991 H         1 UNK         0.0791 
    157 H157      -47.4434  -27.0327    3.1558 H         1 UNK         0.3028 
@<TRIPOS>BOND
     1    1    2 1    
     2    1   82 1    
     3    1   83 1    
     4    1   84 1    
     5    2    3 2    
     6    2    4 am   BACKBONE|DICT|INTERRES
     7    4    5 1    
     8    4   85 1    
     9    5    6 1    
    10    5   80 1    
    11    5   86 1    
    12    6    7 1    
    13    6   87 1    
    14    6   88 1    
    15    7    8 1    
    16    8    9 1    
    17    8   89 1    
    18    8   90 1    
    19    9   10 ar   
    20    9   14 ar   
    21   10   11 ar   
    22   10   91 1    
    23   11   12 ar   
    24   11   58 1    
    25   12   13 ar   
    26   12   92 1    
    27   13   14 ar   
    28   13   15 1    
    29   14   93 1    
    30   15   16 1    
    31   15   94 1    
    32   15   95 1    
    33   16   17 1    
    34   17   18 1    
    35   17   96 1    
    36   17   97 1    
    37   18   19 1    
    38   18   22 1    
    39   18   98 1    
    40   19   20 am   BACKBONE|DICT|INTERRES
    41   19   21 2    
    42   20   99 1    
    43   20  100 1    
    44   22   23 am   BACKBONE|DICT|INTERRES
    45   22  101 1    
    46   23   24 2    
    47   23   25 1    
    48   25   26 1    
    49   25   27 1    
    50   25  102 1    
    51   26  103 1    
    52   26  104 1    
    53   26  105 1    
    54   27   28 am   BACKBONE|DICT|INTERRES
    55   27  106 1    
    56   28   29 2    
    57   28   30 1    
    58   30   31 1    
    59   30   32 1    
    60   30  107 1    
    61   31  108 1    
    62   31  109 1    
    63   31  110 1    
    64   32   33 am   BACKBONE|DICT|INTERRES
    65   32  111 1    
    66   33   34 2    
    67   33   35 1    
    68   35   36 1    
    69   35   37 1    
    70   35  112 1    
    71   36  113 1    
    72   36  114 1    
    73   36  115 1    
    74   37   38 am   BACKBONE|DICT|INTERRES
    75   37  116 1    
    76   38   39 2    
    77   38   40 1    
    78   40   41 1    
    79   40   42 1    
    80   40  117 1    
    81   41  118 1    
    82   41  119 1    
    83   41  120 1    
    84   42   43 am   BACKBONE|DICT|INTERRES
    85   42  121 1    
    86   43   44 2    
    87   43   45 1    
    88   45   46 1    
    89   45   47 1    
    90   45  122 1    
    91   46  123 1    
    92   46  124 1    
    93   46  125 1    
    94   47   48 am   BACKBONE|DICT|INTERRES
    95   47  126 1    
    96   48   49 2    
    97   48   50 1    
    98   50   51 1    
    99   50   52 1    
   100   50  127 1    
   101   51  128 1    
   102   51  129 1    
   103   51  130 1    
   104   52   53 am   BACKBONE|DICT|INTERRES
   105   52  131 1    
   106   53   54 2    
   107   53   55 1    
   108   55   56 1    
   109   55   59 1    
   110   55  132 1    
   111   56   57 1    
   112   56  133 1    
   113   56  134 1    
   114   57   58 1    
   115   58  135 1    
   116   58  136 1    
   117   59   60 am   BACKBONE|DICT|INTERRES
   118   59  137 1    
   119   60   61 2    
   120   60   62 1    
   121   62   63 1    
   122   62   64 1    
   123   62  138 1    
   124   63  139 1    
   125   63  140 1    
   126   63  141 1    
   127   64   65 am   BACKBONE|DICT|INTERRES
   128   64  142 1    
   129   65   66 2    
   130   65   67 1    
   131   67   68 1    
   132   67   69 1    
   133   67  143 1    
   134   68  144 1    
   135   68  145 1    
   136   68  146 1    
   137   69   70 am   BACKBONE|DICT|INTERRES
   138   69  147 1    
   139   70   71 2    
   140   70   72 1    
   141   72   73 1    
   142   72   74 1    
   143   72  148 1    
   144   73  149 1    
   145   73  150 1    
   146   73  151 1    
   147   74   75 am   BACKBONE|DICT|INTERRES
   148   74  152 1    
   149   75   76 2    
   150   75   77 1    
   151   77   78 1    
   152   77   79 1    
   153   77  153 1    
   154   78  154 1    
   155   78  155 1    
   156   78  156 1    
   157   79   80 am   BACKBONE|DICT|INTERRES
   158   79  157 1    
   159   80   81 2    
@<TRIPOS>SUBSTRUCTURE
     1 UNK         1 GROUP             0       ****    0 ROOT    
