@<TRIPOS>MOLECULE
3R207
157   159    1
SMALL
USER_CHARGES


@<TRIPOS>ATOM
      1 CA        -45.3473  -26.7978   11.5374 C.3       0 UNK        -0.1975 
      2 C         -45.6888  -27.1380   10.0944 C.2       0 UNK         0.4852 
      3 O         -44.8910  -26.8731    9.1937 O.2       0 UNK        -0.5216 
      4 N         -46.8677  -27.7291    9.8697 N.am      1 UNK        -0.4461 
      5 CA        -47.3669  -28.1092    8.5481 C.3       1 UNK         0.0864 
      6 C6        -48.4173  -29.2409    8.6443 C.3       14 UNK        -0.0898 
      7 S7        -48.5401  -30.1748    7.0793 S.3       14 UNK        -0.2598 
      8 C8        -49.8502  -31.3795    7.4603 C.3       14 UNK         0.0286 
      9 C9        -51.1455  -30.7073    7.8915 C.ar      14 UNK        -0.0844 
     10 C10       -51.8257  -29.8498    7.0199 C.ar      14 UNK        -0.0881 
     11 C11       -53.0013  -29.2121    7.4266 C.ar      14 UNK        -0.0643 
     12 C12       -53.5100  -29.4614    8.7052 C.ar      14 UNK        -0.0930 
     13 C13       -52.8363  -30.3134    9.5841 C.ar      14 UNK        -0.0827 
     14 C14       -51.6549  -30.9338    9.1731 C.ar      14 UNK        -0.1249 
     15 C15       -53.3725  -30.5399   10.9865 C.3       14 UNK         0.0141 
     16 S16       -52.7399  -29.2608   12.1062 S.3       14 UNK        -0.2313 
     17 C17       -53.7413  -29.5649   13.5996 C.3       14 UNK        -0.0915 
     18 CA        -55.1525  -28.9165   13.5447 C.3       13 UNK         0.0968 
     19 C         -55.8889  -29.0774   14.9072 C.2       13 UNK         0.5732 
     20 N         -56.1968  -28.0094   15.6365 N.am      13 UNK        -0.7310 
     21 O         -56.1934  -30.1987   15.3064 O.2       13 UNK        -0.5035 
     22 N         -55.0999  -27.5374   13.0475 N.am      13 UNK        -0.4233 
     23 C         -56.1376  -26.8320   12.5826 C.2       13 UNK         0.4989 
     24 O         -57.2649  -27.3011   12.4167 O.2       13 UNK        -0.4996 
     25 CA        -55.8632  -25.3486   12.2576 C.3       12 UNK         0.0216 
     26 CB        -57.1134  -24.4601   12.4332 C.3       12 UNK        -0.1964 
     27 N         -54.7171  -24.7960   12.9974 N.am      12 UNK        -0.4276 
     28 C         -54.5881  -24.7156   14.3303 C.2       12 UNK         0.5020 
     29 O         -55.4613  -25.0643   15.1303 O.2       12 UNK        -0.5489 
     30 CA        -53.2500  -24.1773   14.8598 C.3       11 UNK         0.0294 
     31 CB        -53.3176  -22.6543   15.0524 C.3       11 UNK        -0.2019 
     32 N         -52.9053  -24.8120   16.1338 N.am      11 UNK        -0.4493 
     33 C         -52.4641  -26.0691   16.2551 C.2       11 UNK         0.4932 
     34 O         -52.1647  -26.7922   15.2983 O.2       11 UNK        -0.5029 
     35 CA        -52.3461  -26.6122   17.6855 C.3       10 UNK         0.0280 
     36 CB        -53.7286  -26.9310   18.2804 C.3       10 UNK        -0.1976 
     37 N         -51.5472  -27.8286   17.6361 N.am      10 UNK        -0.4242 
     38 C         -50.6919  -28.2689   18.5644 C.2       10 UNK         0.5072 
     39 O         -50.5530  -27.7525   19.6741 O.2       10 UNK        -0.5224 
     40 CA        -49.8291  -29.4894   18.1804 C.3       9 UNK         0.0343 
     41 CB        -50.4298  -30.7781   18.7649 C.3       9 UNK        -0.2003 
     42 N         -49.6640  -29.6494   16.7292 N.am      9 UNK        -0.4272 
     43 C         -48.9916  -28.7978   15.9409 C.2       9 UNK         0.4988 
     44 O         -48.3520  -27.8353   16.3669 O.2       9 UNK        -0.5108 
     45 CA        -49.0850  -29.0102   14.4254 C.3       8 UNK         0.0248 
     46 CB        -49.7265  -30.3458   13.9913 C.3       8 UNK        -0.2001 
     47 N         -49.8499  -27.8914   13.8851 N.am      8 UNK        -0.4140 
     48 C         -49.6321  -27.3025   12.7092 C.2       8 UNK         0.5028 
     49 O         -48.7715  -27.6560   11.8983 O.2       8 UNK        -0.5428 
     50 CA        -50.5152  -26.0912   12.4028 C.3       7 UNK         0.0264 
     51 CB        -49.9160  -24.8084   13.0016 C.3       7 UNK        -0.1988 
     52 N         -50.6327  -25.9519   10.9571 N.am      7 UNK        -0.4454 
     53 C         -51.7751  -25.6918   10.3151 C.2       7 UNK         0.5027 
     54 O         -52.8277  -25.3890   10.8820 O.2       7 UNK        -0.5083 
     55 CA        -51.7074  -25.7820    8.7816 C.3       6 UNK         0.0844 
     56 C56       -53.0929  -26.0159    8.1175 C.3       14 UNK        -0.0967 
     57 S57       -52.9132  -26.6199    6.4038 S.3       14 UNK        -0.2604 
     58 C58       -53.7207  -28.2543    6.4860 C.3       14 UNK         0.0134 
     59 N         -50.9689  -24.6313    8.2513 N.am      6 UNK        -0.4116 
     60 C         -51.3752  -23.3522    8.2227 C.2       5 UNK         0.5034 
     61 O         -52.4756  -22.9619    8.6167 O.2       5 UNK        -0.5045 
     62 CA        -50.3746  -22.3368    7.6384 C.3       5 UNK         0.0224 
     63 CB        -50.8150  -20.8681    7.8242 C.3       5 UNK        -0.1978 
     64 N         -49.0064  -22.5377    8.1277 N.am      5 UNK        -0.4737 
     65 C         -48.5698  -22.4596    9.3956 C.2       4 UNK         0.5027 
     66 O         -49.2917  -22.1708   10.3498 O.2       4 UNK        -0.5211 
     67 CA        -47.0779  -22.7538    9.6472 C.3       4 UNK         0.0297 
     68 CB        -46.8793  -23.6309   10.8931 C.3       4 UNK        -0.1993 
     69 N         -46.4576  -23.4211    8.5015 N.am      4 UNK        -0.4486 
     70 C         -45.6634  -22.8314    7.5971 C.2       3 UNK         0.4961 
     71 O         -45.2826  -21.6634    7.6759 O.2       3 UNK        -0.5105 
     72 CA        -45.2427  -23.6735    6.3765 C.3       3 UNK         0.0299 
     73 CB        -43.8357  -24.2553    6.5862 C.3       3 UNK        -0.1972 
     74 N         -46.1737  -24.7629    6.0650 N.am      3 UNK        -0.4305 
     75 C         -47.4469  -24.6023    5.6724 C.2       2 UNK         0.5006 
     76 O         -47.9649  -23.5049    5.4693 O.2       2 UNK        -0.5106 
     77 CA        -48.3100  -25.8710    5.5534 C.3       2 UNK         0.0296 
     78 CB        -48.3122  -26.3918    4.1081 C.3       2 UNK        -0.2002 
     79 N         -47.8900  -26.9448    6.4588 N.am      2 UNK        -0.4032 
     80 C         -47.9114  -26.8772    7.7972 C.2       1 UNK         0.5000 
     81 O         -48.3317  -25.8971    8.4225 O.2       1 UNK        -0.5238 
     82 H82       -44.7986  -27.6203   11.9951 H         1 UNK         0.0889 
     83 H83       -46.2448  -26.6128   12.1275 H         1 UNK         0.0889 
     84 H84       -44.7221  -25.9069   11.5828 H         1 UNK         0.0889 
     85 H85       -47.5282  -27.8347   10.6415 H         1 UNK         0.3028 
     86 H86       -46.5107  -28.4897    7.9858 H         1 UNK         0.0864 
     87 H87       -48.1351  -29.9523    9.4224 H         1 UNK         0.0720 
     88 H88       -49.3943  -28.8488    8.9349 H         1 UNK         0.0720 
     89 H89       -50.0409  -31.9886    6.5757 H         1 UNK         0.0814 
     90 H90       -49.4880  -32.0618    8.2309 H         1 UNK         0.0814 
     91 H91       -51.4270  -29.6608    6.0324 H         1 UNK         0.1469 
     92 H92       -54.4214  -28.9770    9.0278 H         1 UNK         0.1381 
     93 H93       -51.1271  -31.5837    9.8579 H         1 UNK         0.1206 
     94 H94       -54.4630  -30.5170   10.9757 H         1 UNK         0.0813 
     95 H95       -53.0830  -31.5250   11.3557 H         1 UNK         0.0813 
     96 H96       -53.8177  -30.6416   13.7613 H         1 UNK         0.0638 
     97 H97       -53.1784  -29.1710   14.4474 H         1 UNK         0.0638 
     98 H98       -55.7417  -29.4849   12.8233 H         1 UNK         0.0568 
     99 H99       -55.9537  -27.0743   15.3291 H         1 UNK         0.3450 
    100 H100      -56.6844  -28.1377   16.5080 H         1 UNK         0.3450 
    101 H101      -54.2063  -27.0778   13.1364 H         1 UNK         0.2987 
    102 H102      -55.5847  -25.3209   11.2031 H         1 UNK         0.0766 
    103 H103      -56.8971  -23.4195   12.1921 H         1 UNK         0.0798 
    104 H104      -57.9195  -24.7829   11.7732 H         1 UNK         0.0798 
    105 H105      -57.4962  -24.4960   13.4536 H         1 UNK         0.0798 
    106 H106      -53.9196  -24.5703   12.4085 H         1 UNK         0.3198 
    107 H107      -52.4686  -24.4018   14.1332 H         1 UNK         0.0843 
    108 H108      -54.0916  -22.3712   15.7670 H         1 UNK         0.0831 
    109 H109      -53.5444  -22.1516   14.1112 H         1 UNK         0.0831 
    110 H110      -52.3674  -22.2566   15.4093 H         1 UNK         0.0831 
    111 H111      -53.1671  -24.3089   16.9692 H         1 UNK         0.3133 
    112 H112      -51.8410  -25.8617   18.2972 H         1 UNK         0.0566 
    113 H113      -54.2474  -27.6942   17.6995 H         1 UNK         0.0814 
    114 H114      -54.3667  -26.0468   18.3017 H         1 UNK         0.0814 
    115 H115      -53.6433  -27.2935   19.3050 H         1 UNK         0.0814 
    116 H116      -51.5632  -28.2859   16.7346 H         1 UNK         0.3091 
    117 H117      -48.8398  -29.3418   18.6189 H         1 UNK         0.0702 
    118 H118      -49.7924  -31.6398   18.5658 H         1 UNK         0.0785 
    119 H119      -51.4182  -30.9869   18.3533 H         1 UNK         0.0785 
    120 H120      -50.5379  -30.7011   19.8479 H         1 UNK         0.0785 
    121 H121      -50.1489  -30.4239   16.2989 H         1 UNK         0.2998 
    122 H122      -48.0629  -28.9757   14.0419 H         1 UNK         0.0697 
    123 H123      -50.7680  -30.4253   14.3042 H         1 UNK         0.0825 
    124 H124      -49.1825  -31.1989   14.3987 H         1 UNK         0.0825 
    125 H125      -49.7083  -30.4471   12.9056 H         1 UNK         0.0825 
    126 H126      -50.5774  -27.5103   14.4856 H         1 UNK         0.3029 
    127 H127      -51.5007  -26.2730   12.8353 H         1 UNK         0.0897 
    128 H128      -50.4740  -23.9237   12.6938 H         1 UNK         0.0792 
    129 H129      -49.9306  -24.8441   14.0917 H         1 UNK         0.0792 
    130 H130      -48.8800  -24.6704   12.6961 H         1 UNK         0.0792 
    131 H131      -49.8074  -26.2191   10.4331 H         1 UNK         0.3086 
    132 H132      -51.0968  -26.6608    8.5643 H         1 UNK         0.0583 
    133 H133      -53.6749  -26.7351    8.6930 H         1 UNK         0.1020 
    134 H134      -53.6989  -25.1101    8.1129 H         1 UNK         0.1020 
    135 H135      -54.7615  -28.1260    6.7877 H         1 UNK         0.0694 
    136 H136      -53.7467  -28.6836    5.4834 H         1 UNK         0.0694 
    137 H137      -50.0061  -24.8308    8.0045 H         1 UNK         0.2989 
    138 H138      -50.3468  -22.5325    6.5650 H         1 UNK         0.1055 
    139 H139      -50.0979  -20.1794    7.3775 H         1 UNK         0.0806 
    140 H140      -50.9219  -20.6059    8.8772 H         1 UNK         0.0806 
    141 H141      -51.7782  -20.6860    7.3459 H         1 UNK         0.0806 
    142 H142      -48.3329  -22.7808    7.4096 H         1 UNK         0.3061 
    143 H143      -46.5938  -21.7930    9.8332 H         1 UNK         0.0734 
    144 H144      -47.2684  -23.1386   11.7850 H         1 UNK         0.0832 
    145 H145      -47.3902  -24.5891   10.7925 H         1 UNK         0.0832 
    146 H146      -45.8222  -23.8238   11.0716 H         1 UNK         0.0832 
    147 H147      -46.7485  -24.3794    8.3468 H         1 UNK         0.3156 
    148 H148      -45.2118  -23.0057    5.5130 H         1 UNK         0.0589 
    149 H149      -43.8067  -24.9485    7.4282 H         1 UNK         0.0808 
    150 H150      -43.4881  -24.7867    5.7000 H         1 UNK         0.0808 
    151 H151      -43.1129  -23.4642    6.7914 H         1 UNK         0.0808 
    152 H152      -45.8322  -25.7021    6.2106 H         1 UNK         0.3098 
    153 H153      -49.3340  -25.5973    5.8167 H         1 UNK         0.0720 
    154 H154      -48.9883  -27.2395    3.9936 H         1 UNK         0.0791 
    155 H155      -48.6466  -25.6179    3.4154 H         1 UNK         0.0791 
    156 H156      -47.3181  -26.7079    3.7891 H         1 UNK         0.0791 
    157 H157      -47.5720  -27.8014    6.0265 H         1 UNK         0.3028 
@<TRIPOS>BOND
     1    1    2 1    
     2    1   82 1    
     3    1   83 1    
     4    1   84 1    
     5    2    3 2    
     6    2    4 am   BACKBONE|DICT|INTERRES
     7    4    5 1    
     8    4   85 1    
     9    5    6 1    
    10    5   80 1    
    11    5   86 1    
    12    6    7 1    
    13    6   87 1    
    14    6   88 1    
    15    7    8 1    
    16    8    9 1    
    17    8   89 1    
    18    8   90 1    
    19    9   10 ar   
    20    9   14 ar   
    21   10   11 ar   
    22   10   91 1    
    23   11   12 ar   
    24   11   58 1    
    25   12   13 ar   
    26   12   92 1    
    27   13   14 ar   
    28   13   15 1    
    29   14   93 1    
    30   15   16 1    
    31   15   94 1    
    32   15   95 1    
    33   16   17 1    
    34   17   18 1    
    35   17   96 1    
    36   17   97 1    
    37   18   19 1    
    38   18   22 1    
    39   18   98 1    
    40   19   20 am   BACKBONE|DICT|INTERRES
    41   19   21 2    
    42   20   99 1    
    43   20  100 1    
    44   22   23 am   BACKBONE|DICT|INTERRES
    45   22  101 1    
    46   23   24 2    
    47   23   25 1    
    48   25   26 1    
    49   25   27 1    
    50   25  102 1    
    51   26  103 1    
    52   26  104 1    
    53   26  105 1    
    54   27   28 am   BACKBONE|DICT|INTERRES
    55   27  106 1    
    56   28   29 2    
    57   28   30 1    
    58   30   31 1    
    59   30   32 1    
    60   30  107 1    
    61   31  108 1    
    62   31  109 1    
    63   31  110 1    
    64   32   33 am   BACKBONE|DICT|INTERRES
    65   32  111 1    
    66   33   34 2    
    67   33   35 1    
    68   35   36 1    
    69   35   37 1    
    70   35  112 1    
    71   36  113 1    
    72   36  114 1    
    73   36  115 1    
    74   37   38 am   BACKBONE|DICT|INTERRES
    75   37  116 1    
    76   38   39 2    
    77   38   40 1    
    78   40   41 1    
    79   40   42 1    
    80   40  117 1    
    81   41  118 1    
    82   41  119 1    
    83   41  120 1    
    84   42   43 am   BACKBONE|DICT|INTERRES
    85   42  121 1    
    86   43   44 2    
    87   43   45 1    
    88   45   46 1    
    89   45   47 1    
    90   45  122 1    
    91   46  123 1    
    92   46  124 1    
    93   46  125 1    
    94   47   48 am   BACKBONE|DICT|INTERRES
    95   47  126 1    
    96   48   49 2    
    97   48   50 1    
    98   50   51 1    
    99   50   52 1    
   100   50  127 1    
   101   51  128 1    
   102   51  129 1    
   103   51  130 1    
   104   52   53 am   BACKBONE|DICT|INTERRES
   105   52  131 1    
   106   53   54 2    
   107   53   55 1    
   108   55   56 1    
   109   55   59 1    
   110   55  132 1    
   111   56   57 1    
   112   56  133 1    
   113   56  134 1    
   114   57   58 1    
   115   58  135 1    
   116   58  136 1    
   117   59   60 am   BACKBONE|DICT|INTERRES
   118   59  137 1    
   119   60   61 2    
   120   60   62 1    
   121   62   63 1    
   122   62   64 1    
   123   62  138 1    
   124   63  139 1    
   125   63  140 1    
   126   63  141 1    
   127   64   65 am   BACKBONE|DICT|INTERRES
   128   64  142 1    
   129   65   66 2    
   130   65   67 1    
   131   67   68 1    
   132   67   69 1    
   133   67  143 1    
   134   68  144 1    
   135   68  145 1    
   136   68  146 1    
   137   69   70 am   BACKBONE|DICT|INTERRES
   138   69  147 1    
   139   70   71 2    
   140   70   72 1    
   141   72   73 1    
   142   72   74 1    
   143   72  148 1    
   144   73  149 1    
   145   73  150 1    
   146   73  151 1    
   147   74   75 am   BACKBONE|DICT|INTERRES
   148   74  152 1    
   149   75   76 2    
   150   75   77 1    
   151   77   78 1    
   152   77   79 1    
   153   77  153 1    
   154   78  154 1    
   155   78  155 1    
   156   78  156 1    
   157   79   80 am   BACKBONE|DICT|INTERRES
   158   79  157 1    
   159   80   81 2    
@<TRIPOS>SUBSTRUCTURE
     1 UNK         1 GROUP             0       ****    0 ROOT    
