@<TRIPOS>MOLECULE
3R207
157   159    1
SMALL
USER_CHARGES


@<TRIPOS>ATOM
      1 CA        -47.1957  -30.4597    8.9429 C.3       0 UNK        -0.1975 
      2 C         -47.8548  -29.2632    8.2751 C.2       0 UNK         0.4852 
      3 O         -47.5942  -28.1247    8.6657 O.2       0 UNK        -0.5216 
      4 N         -48.6906  -29.5066    7.2554 N.am      1 UNK        -0.4461 
      5 CA        -49.4562  -28.4961    6.5064 C.3       1 UNK         0.0864 
      6 C6        -50.5725  -27.8291    7.3582 C.3       14 UNK        -0.0898 
      7 S7        -51.7589  -29.0561    8.0099 S.3       14 UNK        -0.2598 
      8 C8        -53.2435  -28.7235    7.0071 C.3       14 UNK         0.0286 
      9 C9        -54.2099  -27.7890    7.7227 C.ar      14 UNK        -0.0844 
     10 C10       -53.8825  -26.4465    7.9219 C.ar      14 UNK        -0.0881 
     11 C11       -54.7543  -25.5958    8.6034 C.ar      14 UNK        -0.0643 
     12 C12       -55.9809  -26.0914    9.0597 C.ar      14 UNK        -0.0930 
     13 C13       -56.3429  -27.4271    8.8464 C.ar      14 UNK        -0.0827 
     14 C14       -55.4401  -28.2690    8.1807 C.ar      14 UNK        -0.1249 
     15 C15       -57.7210  -27.8940    9.3342 C.3       14 UNK         0.0141 
     16 S16       -58.1880  -29.6085    8.8963 S.3       14 UNK        -0.2313 
     17 C17       -57.9849  -30.5102   10.4754 C.3       14 UNK        -0.0915 
     18 CA        -56.5347  -30.9497   10.8310 C.3       13 UNK         0.0968 
     19 C         -55.8269  -31.8006    9.7415 C.2       13 UNK         0.5732 
     20 N         -56.4333  -32.9030    9.3220 N.am      13 UNK        -0.7310 
     21 O         -54.7321  -31.4851    9.2801 O.2       13 UNK        -0.5035 
     22 N         -55.7255  -29.8033   11.2597 N.am      13 UNK        -0.4233 
     23 C         -55.5762  -29.4058   12.5262 C.2       13 UNK         0.4989 
     24 O         -56.0613  -29.9896   13.4988 O.2       13 UNK        -0.4996 
     25 CA        -54.8075  -28.0958   12.7466 C.3       12 UNK         0.0216 
     26 CB        -55.7934  -26.9272   12.9226 C.3       12 UNK        -0.1964 
     27 N         -53.9653  -28.1789   13.9386 N.am      12 UNK        -0.4276 
     28 C         -52.7782  -28.7925   13.9843 C.2       12 UNK         0.5020 
     29 O         -52.2260  -29.2929   13.0032 O.2       12 UNK        -0.5489 
     30 CA        -52.0868  -28.8012   15.3536 C.3       11 UNK         0.0294 
     31 CB        -50.8079  -29.6590   15.3721 C.3       11 UNK        -0.2019 
     32 N         -51.7352  -27.4321   15.7219 N.am      11 UNK        -0.4493 
     33 C         -52.3043  -26.7135   16.6982 C.2       11 UNK         0.4932 
     34 O         -53.2713  -27.1052   17.3532 O.2       11 UNK        -0.5029 
     35 CA        -51.6864  -25.3272   16.9877 C.3       10 UNK         0.0280 
     36 CB        -51.9814  -24.8226   18.4162 C.3       10 UNK        -0.1976 
     37 N         -50.2481  -25.2697   16.6893 N.am      10 UNK        -0.4242 
     38 C         -49.2723  -26.0048   17.2477 C.2       10 UNK         0.5072 
     39 O         -49.4395  -26.7423   18.2201 O.2       10 UNK        -0.5224 
     40 CA        -47.8784  -25.9477   16.5988 C.3       9 UNK         0.0343 
     41 CB        -47.4907  -27.3272   16.0345 C.3       9 UNK        -0.2003 
     42 N         -47.7903  -24.9635   15.5140 N.am      9 UNK        -0.4272 
     43 C         -46.9038  -23.9596   15.4710 C.2       9 UNK         0.4988 
     44 O         -46.0901  -23.7214   16.3646 O.2       9 UNK        -0.5108 
     45 CA        -46.9016  -23.0731   14.2149 C.3       8 UNK         0.0248 
     46 CB        -45.9982  -23.6783   13.1276 C.3       8 UNK        -0.2001 
     47 N         -48.2310  -22.8200   13.6564 N.am      8 UNK        -0.4140 
     48 C         -49.1644  -22.0462   14.2293 C.2       8 UNK         0.5028 
     49 O         -49.0440  -21.5367   15.3434 O.2       8 UNK        -0.5428 
     50 CA        -50.4448  -21.7899   13.4233 C.3       7 UNK         0.0264 
     51 CB        -50.1951  -20.7286   12.3386 C.3       7 UNK        -0.1988 
     52 N         -50.9173  -23.0199   12.7913 N.am      7 UNK        -0.4454 
     53 C         -51.9896  -23.7190   13.1841 C.2       7 UNK         0.5027 
     54 O         -52.7389  -23.3665   14.0952 O.2       7 UNK        -0.5083 
     55 CA        -52.2839  -25.0471   12.4535 C.3       6 UNK         0.0844 
     56 C56       -53.3863  -24.8636   11.3837 C.3       14 UNK        -0.0967 
     57 S57       -52.8473  -24.0032    9.8665 S.3       14 UNK        -0.2604 
     58 C58       -54.3585  -24.1452    8.8531 C.3       14 UNK         0.0134 
     59 N         -51.0941  -25.7060   11.9074 N.am      6 UNK        -0.4116 
     60 C         -50.0439  -26.1345   12.6189 C.2       5 UNK         0.5034 
     61 O         -49.9875  -26.0944   13.8483 O.2       5 UNK        -0.5045 
     62 CA        -48.8148  -26.6310   11.8375 C.3       5 UNK         0.0224 
     63 CB        -48.8620  -28.1585   11.6955 C.3       5 UNK        -0.1978 
     64 N         -48.6105  -26.0190   10.5151 N.am      5 UNK        -0.4737 
     65 C         -48.5822  -24.7022   10.2523 C.2       4 UNK         0.5027 
     66 O         -48.7710  -23.8350   11.1074 O.2       4 UNK        -0.5211 
     67 CA        -48.3102  -24.2929    8.7948 C.3       4 UNK         0.0297 
     68 CB        -48.1471  -22.7684    8.6176 C.3       4 UNK        -0.1993 
     69 N         -47.1757  -25.0184    8.2181 N.am      4 UNK        -0.4486 
     70 C         -45.8996  -25.0148    8.6392 C.2       3 UNK         0.4961 
     71 O         -45.4815  -24.3103    9.5584 O.2       3 UNK        -0.5105 
     72 CA        -44.9124  -25.9651    7.9330 C.3       3 UNK         0.0299 
     73 CB        -44.3163  -26.9703    8.9346 C.3       3 UNK        -0.1972 
     74 N         -45.5367  -26.7073    6.8355 N.am      3 UNK        -0.4305 
     75 C         -45.5781  -26.3021    5.5582 C.2       2 UNK         0.5006 
     76 O         -45.0178  -25.2867    5.1444 O.2       2 UNK        -0.5106 
     77 CA        -46.3926  -27.1607    4.5697 C.3       2 UNK         0.0296 
     78 CB        -45.4607  -28.0894    3.7741 C.3       2 UNK        -0.2002 
     79 N         -47.4483  -27.9628    5.1991 N.am      2 UNK        -0.4032 
     80 C         -48.5242  -27.4649    5.8281 C.2       1 UNK         0.5000 
     81 O         -48.7463  -26.2570    5.9325 O.2       1 UNK        -0.5238 
     82 H82       -47.3620  -31.3802    8.3839 H         1 UNK         0.0889 
     83 H83       -47.5950  -30.5943    9.9473 H         1 UNK         0.0889 
     84 H84       -46.1207  -30.3001    9.0212 H         1 UNK         0.0889 
     85 H85       -48.8669  -30.4646    6.9857 H         1 UNK         0.3028 
     86 H86       -49.9450  -29.0260    5.6873 H         1 UNK         0.0864 
     87 H87       -51.1071  -27.0887    6.7628 H         1 UNK         0.0720 
     88 H88       -50.1463  -27.2848    8.2021 H         1 UNK         0.0720 
     89 H89       -53.7284  -29.6784    6.7979 H         1 UNK         0.0814 
     90 H90       -52.9700  -28.3085    6.0362 H         1 UNK         0.0814 
     91 H91       -52.9368  -26.0607    7.5707 H         1 UNK         0.1469 
     92 H92       -56.6626  -25.4312    9.5787 H         1 UNK         0.1381 
     93 H93       -55.6848  -29.3049    8.0003 H         1 UNK         0.1206 
     94 H94       -57.7885  -27.7620   10.4140 H         1 UNK         0.0813 
     95 H95       -58.4743  -27.2331    8.9032 H         1 UNK         0.0813 
     96 H96       -58.6252  -31.3917   10.4216 H         1 UNK         0.0638 
     97 H97       -58.4043  -29.9089   11.2835 H         1 UNK         0.0638 
     98 H98       -56.6084  -31.6331   11.6790 H         1 UNK         0.0568 
     99 H99       -57.3315  -33.1773    9.6873 H         1 UNK         0.3450 
    100 H100      -55.9852  -33.4677    8.6178 H         1 UNK         0.3450 
    101 H101      -55.2589  -29.3093   10.5106 H         1 UNK         0.2987 
    102 H102      -54.1715  -27.9078   11.8798 H         1 UNK         0.0766 
    103 H103      -56.3232  -26.7198   11.9935 H         1 UNK         0.0798 
    104 H104      -55.2862  -26.0100   13.2187 H         1 UNK         0.0798 
    105 H105      -56.5444  -27.1434   13.6840 H         1 UNK         0.0798 
    106 H106      -54.3598  -27.8303   14.8012 H         1 UNK         0.3198 
    107 H107      -52.7871  -29.2313   16.0730 H         1 UNK         0.0843 
    108 H108      -51.0249  -30.6908   15.0931 H         1 UNK         0.0831 
    109 H109      -50.3602  -29.6774   16.3659 H         1 UNK         0.0831 
    110 H110      -50.0580  -29.2823   14.6773 H         1 UNK         0.0831 
    111 H111      -51.0015  -26.9961   15.1677 H         1 UNK         0.3133 
    112 H112      -52.1661  -24.6358   16.2964 H         1 UNK         0.0566 
    113 H113      -51.5345  -23.8440   18.5914 H         1 UNK         0.0814 
    114 H114      -51.6020  -25.5066   19.1758 H         1 UNK         0.0814 
    115 H115      -53.0548  -24.7208   18.5803 H         1 UNK         0.0814 
    116 H116      -49.9979  -24.7057   15.8907 H         1 UNK         0.3091 
    117 H117      -47.1799  -25.7013   17.4009 H         1 UNK         0.0702 
    118 H118      -46.4785  -27.3181   15.6301 H         1 UNK         0.0785 
    119 H119      -48.1660  -27.6423   15.2385 H         1 UNK         0.0785 
    120 H120      -47.5210  -28.0937   16.8101 H         1 UNK         0.0785 
    121 H121      -48.4179  -25.1071   14.7312 H         1 UNK         0.2998 
    122 H122      -46.4772  -22.1080   14.5001 H         1 UNK         0.0697 
    123 H123      -46.3684  -24.6419   12.7785 H         1 UNK         0.0825 
    124 H124      -44.9857  -23.8348   13.5020 H         1 UNK         0.0825 
    125 H125      -45.9240  -23.0212   12.2605 H         1 UNK         0.0825 
    126 H126      -48.4042  -23.1804   12.7186 H         1 UNK         0.3029 
    127 H127      -51.1971  -21.3978   14.1113 H         1 UNK         0.0897 
    128 H128      -49.4521  -21.0574   11.6103 H         1 UNK         0.0792 
    129 H129      -49.8340  -19.7978   12.7782 H         1 UNK         0.0792 
    130 H130      -51.1121  -20.4971   11.7965 H         1 UNK         0.0792 
    131 H131      -50.3379  -23.3901   12.0415 H         1 UNK         0.3086 
    132 H132      -52.6815  -25.7200   13.2151 H         1 UNK         0.0583 
    133 H133      -53.7478  -25.8469   11.0894 H         1 UNK         0.1020 
    134 H134      -54.2517  -24.3417   11.7972 H         1 UNK         0.1020 
    135 H135      -55.1662  -23.5994    9.3432 H         1 UNK         0.0694 
    136 H136      -54.1896  -23.6516    7.8951 H         1 UNK         0.0694 
    137 H137      -51.0414  -25.7566   10.9007 H         1 UNK         0.2989 
    138 H138      -47.9418  -26.3805   12.4418 H         1 UNK         0.1055 
    139 H139      -49.6430  -28.4768   11.0033 H         1 UNK         0.0806 
    140 H140      -47.9095  -28.5470   11.3369 H         1 UNK         0.0806 
    141 H141      -49.0598  -28.6397   12.6534 H         1 UNK         0.0806 
    142 H142      -48.3727  -26.6621    9.7633 H         1 UNK         0.3061 
    143 H143      -49.1894  -24.5972    8.2248 H         1 UNK         0.0734 
    144 H144      -47.3171  -22.3771    9.2068 H         1 UNK         0.0832 
    145 H145      -47.9728  -22.5065    7.5742 H         1 UNK         0.0832 
    146 H146      -49.0469  -22.2419    8.9384 H         1 UNK         0.0832 
    147 H147      -47.4187  -25.6352    7.4512 H         1 UNK         0.3156 
    148 H148      -44.0952  -25.3544    7.5436 H         1 UNK         0.0589 
    149 H149      -43.7791  -26.4550    9.7319 H         1 UNK         0.0808 
    150 H150      -45.0879  -27.5793    9.4067 H         1 UNK         0.0808 
    151 H151      -43.6070  -27.6415    8.4502 H         1 UNK         0.0808 
    152 H152      -46.0629  -27.5279    7.1061 H         1 UNK         0.3098 
    153 H153      -46.8726  -26.4757    3.8676 H         1 UNK         0.0720 
    154 H154      -44.6806  -27.5191    3.2676 H         1 UNK         0.0791 
    155 H155      -46.0066  -28.6382    3.0064 H         1 UNK         0.0791 
    156 H156      -44.9654  -28.8155    4.4201 H         1 UNK         0.0791 
    157 H157      -47.3311  -28.9658    5.1748 H         1 UNK         0.3028 
@<TRIPOS>BOND
     1    1    2 1    
     2    1   82 1    
     3    1   83 1    
     4    1   84 1    
     5    2    3 2    
     6    2    4 am   BACKBONE|DICT|INTERRES
     7    4    5 1    
     8    4   85 1    
     9    5    6 1    
    10    5   80 1    
    11    5   86 1    
    12    6    7 1    
    13    6   87 1    
    14    6   88 1    
    15    7    8 1    
    16    8    9 1    
    17    8   89 1    
    18    8   90 1    
    19    9   10 ar   
    20    9   14 ar   
    21   10   11 ar   
    22   10   91 1    
    23   11   12 ar   
    24   11   58 1    
    25   12   13 ar   
    26   12   92 1    
    27   13   14 ar   
    28   13   15 1    
    29   14   93 1    
    30   15   16 1    
    31   15   94 1    
    32   15   95 1    
    33   16   17 1    
    34   17   18 1    
    35   17   96 1    
    36   17   97 1    
    37   18   19 1    
    38   18   22 1    
    39   18   98 1    
    40   19   20 am   BACKBONE|DICT|INTERRES
    41   19   21 2    
    42   20   99 1    
    43   20  100 1    
    44   22   23 am   BACKBONE|DICT|INTERRES
    45   22  101 1    
    46   23   24 2    
    47   23   25 1    
    48   25   26 1    
    49   25   27 1    
    50   25  102 1    
    51   26  103 1    
    52   26  104 1    
    53   26  105 1    
    54   27   28 am   BACKBONE|DICT|INTERRES
    55   27  106 1    
    56   28   29 2    
    57   28   30 1    
    58   30   31 1    
    59   30   32 1    
    60   30  107 1    
    61   31  108 1    
    62   31  109 1    
    63   31  110 1    
    64   32   33 am   BACKBONE|DICT|INTERRES
    65   32  111 1    
    66   33   34 2    
    67   33   35 1    
    68   35   36 1    
    69   35   37 1    
    70   35  112 1    
    71   36  113 1    
    72   36  114 1    
    73   36  115 1    
    74   37   38 am   BACKBONE|DICT|INTERRES
    75   37  116 1    
    76   38   39 2    
    77   38   40 1    
    78   40   41 1    
    79   40   42 1    
    80   40  117 1    
    81   41  118 1    
    82   41  119 1    
    83   41  120 1    
    84   42   43 am   BACKBONE|DICT|INTERRES
    85   42  121 1    
    86   43   44 2    
    87   43   45 1    
    88   45   46 1    
    89   45   47 1    
    90   45  122 1    
    91   46  123 1    
    92   46  124 1    
    93   46  125 1    
    94   47   48 am   BACKBONE|DICT|INTERRES
    95   47  126 1    
    96   48   49 2    
    97   48   50 1    
    98   50   51 1    
    99   50   52 1    
   100   50  127 1    
   101   51  128 1    
   102   51  129 1    
   103   51  130 1    
   104   52   53 am   BACKBONE|DICT|INTERRES
   105   52  131 1    
   106   53   54 2    
   107   53   55 1    
   108   55   56 1    
   109   55   59 1    
   110   55  132 1    
   111   56   57 1    
   112   56  133 1    
   113   56  134 1    
   114   57   58 1    
   115   58  135 1    
   116   58  136 1    
   117   59   60 am   BACKBONE|DICT|INTERRES
   118   59  137 1    
   119   60   61 2    
   120   60   62 1    
   121   62   63 1    
   122   62   64 1    
   123   62  138 1    
   124   63  139 1    
   125   63  140 1    
   126   63  141 1    
   127   64   65 am   BACKBONE|DICT|INTERRES
   128   64  142 1    
   129   65   66 2    
   130   65   67 1    
   131   67   68 1    
   132   67   69 1    
   133   67  143 1    
   134   68  144 1    
   135   68  145 1    
   136   68  146 1    
   137   69   70 am   BACKBONE|DICT|INTERRES
   138   69  147 1    
   139   70   71 2    
   140   70   72 1    
   141   72   73 1    
   142   72   74 1    
   143   72  148 1    
   144   73  149 1    
   145   73  150 1    
   146   73  151 1    
   147   74   75 am   BACKBONE|DICT|INTERRES
   148   74  152 1    
   149   75   76 2    
   150   75   77 1    
   151   77   78 1    
   152   77   79 1    
   153   77  153 1    
   154   78  154 1    
   155   78  155 1    
   156   78  156 1    
   157   79   80 am   BACKBONE|DICT|INTERRES
   158   79  157 1    
   159   80   81 2    
@<TRIPOS>SUBSTRUCTURE
     1 UNK         1 GROUP             0       ****    0 ROOT    
