@<TRIPOS>MOLECULE
3R207
157   159    1
SMALL
USER_CHARGES


@<TRIPOS>ATOM
      1 CA        -50.1411  -24.5558    3.9062 C.3       0 UNK        -0.1975 
      2 C         -49.8867  -24.7543    5.3923 C.2       0 UNK         0.4852 
      3 O         -49.0242  -25.5525    5.7590 O.2       0 UNK        -0.5216 
      4 N         -50.6181  -24.0188    6.2427 N.am      1 UNK        -0.4461 
      5 CA        -50.6105  -24.0985    7.7127 C.3       1 UNK         0.0864 
      6 C6        -51.3310  -25.3616    8.2503 C.3       14 UNK        -0.0898 
      7 S7        -53.0884  -25.3994    7.7485 S.3       14 UNK        -0.2598 
      8 C8        -53.2200  -26.9989    6.8859 C.3       14 UNK         0.0286 
      9 C9        -53.1247  -28.1566    7.8673 C.ar      14 UNK        -0.0844 
     10 C10       -51.9218  -28.8489    8.0202 C.ar      14 UNK        -0.0881 
     11 C11       -51.7965  -29.8438    8.9930 C.ar      14 UNK        -0.0643 
     12 C12       -52.8961  -30.1759    9.7874 C.ar      14 UNK        -0.0930 
     13 C13       -54.1130  -29.5077    9.6244 C.ar      14 UNK        -0.0827 
     14 C14       -54.2246  -28.5038    8.6577 C.ar      14 UNK        -0.1249 
     15 C15       -55.2746  -29.8149   10.5530 C.3       14 UNK         0.0141 
     16 S16       -55.9139  -31.4992   10.3331 S.3       14 UNK        -0.2313 
     17 C17       -57.1264  -31.5928   11.7022 C.3       14 UNK        -0.0915 
     18 CA        -56.5763  -31.5973   13.1640 C.3       13 UNK         0.0968 
     19 C         -55.2772  -32.4358   13.3552 C.2       13 UNK         0.5732 
     20 N         -55.3942  -33.7567   13.3799 N.am      13 UNK        -0.7310 
     21 O         -54.1706  -31.9065   13.4471 O.2       13 UNK        -0.5035 
     22 N         -56.4975  -30.2338   13.7140 N.am      13 UNK        -0.4233 
     23 C         -56.2858  -29.9214   14.9989 C.2       13 UNK         0.4989 
     24 O         -56.1602  -30.7612   15.8927 O.2       13 UNK        -0.4996 
     25 CA        -56.2289  -28.4173   15.3441 C.3       12 UNK         0.0216 
     26 CB        -56.0111  -28.1616   16.8475 C.3       12 UNK        -0.1964 
     27 N         -55.1999  -27.6934   14.5903 N.am      12 UNK        -0.4276 
     28 C         -55.3025  -27.3172   13.3067 C.2       12 UNK         0.5020 
     29 O         -56.2815  -27.5875   12.6081 O.2       12 UNK        -0.5489 
     30 CA        -54.1231  -26.5185   12.7090 C.3       11 UNK         0.0294 
     31 CB        -54.4873  -25.7817   11.4040 C.3       11 UNK        -0.2019 
     32 N         -53.5098  -25.5963   13.6711 N.am      11 UNK        -0.4493 
     33 C         -54.1237  -24.6260   14.3694 C.2       11 UNK         0.4932 
     34 O         -55.2935  -24.2869   14.1846 O.2       11 UNK        -0.5029 
     35 CA        -53.3074  -23.9253   15.4762 C.3       10 UNK         0.0280 
     36 CB        -54.1855  -23.5315   16.6831 C.3       10 UNK        -0.1976 
     37 N         -52.1268  -24.6730   15.9307 N.am      10 UNK        -0.4242 
     38 C         -52.0856  -25.9048   16.4693 C.2       10 UNK         0.5072 
     39 O         -53.0859  -26.6050   16.6355 O.2       10 UNK        -0.5224 
     40 CA        -50.6990  -26.4725   16.8362 C.3       9 UNK         0.0343 
     41 CB        -50.5998  -27.9740   16.5080 C.3       9 UNK        -0.2003 
     42 N         -49.6356  -25.7683   16.1188 N.am      9 UNK        -0.4272 
     43 C         -48.8046  -24.8551   16.6404 C.2       9 UNK         0.4988 
     44 O         -48.7606  -24.5717   17.8376 O.2       9 UNK        -0.5108 
     45 CA        -47.8880  -24.1007   15.6558 C.3       8 UNK         0.0248 
     46 CB        -46.4781  -24.7122   15.6618 C.3       8 UNK        -0.2001 
     47 N         -48.4090  -24.0711   14.2822 N.am      8 UNK        -0.4140 
     48 C         -49.5275  -23.4217   13.9161 C.2       8 UNK         0.5028 
     49 O         -50.1806  -22.7208   14.6889 O.2       8 UNK        -0.5428 
     50 CA        -50.0609  -23.6351   12.4845 C.3       7 UNK         0.0264 
     51 CB        -49.6260  -22.4758   11.5753 C.3       7 UNK        -0.1988 
     52 N         -49.6713  -24.9164   11.8834 N.am      7 UNK        -0.4454 
     53 C         -49.9530  -26.1210   12.4059 C.2       7 UNK         0.5027 
     54 O         -50.6914  -26.2718   13.3810 O.2       7 UNK        -0.5083 
     55 CA        -49.2459  -27.3580   11.8117 C.3       6 UNK         0.0844 
     56 C56       -50.2212  -28.2089   10.9706 C.3       14 UNK        -0.0967 
     57 S57       -49.5923  -29.9089   10.7213 S.3       14 UNK        -0.2604 
     58 C58       -50.4512  -30.5122    9.2236 C.3       14 UNK         0.0134 
     59 N         -48.0305  -27.0276   11.0612 N.am      6 UNK        -0.4116 
     60 C         -46.9247  -26.4582   11.5579 C.2       5 UNK         0.5034 
     61 O         -46.8081  -26.1316   12.7393 O.2       5 UNK        -0.5045 
     62 CA        -45.7862  -26.1277   10.5749 C.3       5 UNK         0.0224 
     63 CB        -44.4221  -26.6475   11.0725 C.3       5 UNK        -0.1978 
     64 N         -46.0497  -26.5260    9.1843 N.am      5 UNK        -0.4737 
     65 C         -46.0905  -27.7550    8.6480 C.2       4 UNK         0.5027 
     66 O         -45.8718  -28.7890    9.2771 O.2       4 UNK        -0.5211 
     67 CA        -46.4867  -27.8526    7.1621 C.3       4 UNK         0.0297 
     68 CB        -47.8968  -28.4466    7.0286 C.3       4 UNK        -0.1993 
     69 N         -46.4549  -26.5596    6.4739 N.am      4 UNK        -0.4486 
     70 C         -45.3381  -25.9534    6.0485 C.2       3 UNK         0.4961 
     71 O         -44.2157  -26.4556    6.1094 O.2       3 UNK        -0.5105 
     72 CA        -45.5004  -24.5268    5.5010 C.3       3 UNK         0.0299 
     73 CB        -46.0068  -24.5507    4.0496 C.3       3 UNK        -0.1972 
     74 N         -46.3955  -23.7141    6.3307 N.am      3 UNK        -0.4305 
     75 C         -46.1041  -23.2821    7.5675 C.2       2 UNK         0.5006 
     76 O         -45.0389  -23.5120    8.1386 O.2       2 UNK        -0.5106 
     77 CA        -47.1782  -22.4662    8.3057 C.3       2 UNK         0.0296 
     78 CB        -46.9509  -20.9607    8.0956 C.3       2 UNK        -0.2002 
     79 N         -48.5411  -22.8129    7.8991 N.am      2 UNK        -0.4032 
     80 C         -49.1951  -23.9106    8.3032 C.2       1 UNK         0.5000 
     81 O         -48.7229  -24.7365    9.0902 O.2       1 UNK        -0.5238 
     82 H82       -51.0080  -23.9216    3.7223 H         1 UNK         0.0889 
     83 H83       -50.3195  -25.5181    3.4271 H         1 UNK         0.0889 
     84 H84       -49.2747  -24.0948    3.4335 H         1 UNK         0.0889 
     85 H85       -51.3005  -23.3787    5.8602 H         1 UNK         0.3028 
     86 H86       -51.1790  -23.2356    8.0639 H         1 UNK         0.0864 
     87 H87       -50.8159  -26.2594    7.9093 H         1 UNK         0.0720 
     88 H88       -51.3069  -25.3871    9.3412 H         1 UNK         0.0720 
     89 H89       -52.4464  -27.0670    6.1191 H         1 UNK         0.0814 
     90 H90       -54.1762  -27.0429    6.3626 H         1 UNK         0.0814 
     91 H91       -51.0676  -28.5809    7.4142 H         1 UNK         0.1469 
     92 H92       -52.7963  -30.9316   10.5552 H         1 UNK         0.1381 
     93 H93       -55.1532  -27.9605    8.5476 H         1 UNK         0.1206 
     94 H94       -56.0877  -29.1009   10.4132 H         1 UNK         0.0813 
     95 H95       -54.9179  -29.7003   11.5754 H         1 UNK         0.0813 
     96 H96       -57.6822  -32.5181   11.5432 H         1 UNK         0.0638 
     97 H97       -57.8631  -30.7983   11.5711 H         1 UNK         0.0638 
     98 H98       -57.3361  -32.0898   13.7744 H         1 UNK         0.0568 
     99 H99       -54.5643  -34.3181   13.4886 H         1 UNK         0.3450 
    100 H100      -56.2928  -34.2038   13.2872 H         1 UNK         0.3450 
    101 H101      -56.5662  -29.4640   13.0557 H         1 UNK         0.2987 
    102 H102      -57.2026  -27.9976   15.0822 H         1 UNK         0.0766 
    103 H103      -56.0243  -27.0951   17.0742 H         1 UNK         0.0798 
    104 H104      -55.0559  -28.5622   17.1897 H         1 UNK         0.0798 
    105 H105      -56.7957  -28.6286   17.4442 H         1 UNK         0.0798 
    106 H106      -54.3754  -27.4170   15.1143 H         1 UNK         0.3198 
    107 H107      -53.3579  -27.2566   12.4639 H         1 UNK         0.0843 
    108 H108      -54.8424  -26.4799   10.6462 H         1 UNK         0.0831 
    109 H109      -55.2759  -25.0456   11.5608 H         1 UNK         0.0831 
    110 H110      -53.6228  -25.2668   10.9849 H         1 UNK         0.0831 
    111 H111      -52.5297  -25.7795   13.8694 H         1 UNK         0.3133 
    112 H112      -52.9279  -23.0054   15.0300 H         1 UNK         0.0566 
    113 H113      -54.6559  -24.4027   17.1406 H         1 UNK         0.0814 
    114 H114      -53.6011  -23.0237   17.4503 H         1 UNK         0.0814 
    115 H115      -54.9836  -22.8506   16.3848 H         1 UNK         0.0814 
    116 H116      -51.2489  -24.1831   15.7987 H         1 UNK         0.3091 
    117 H117      -50.5775  -26.3493   17.9140 H         1 UNK         0.0702 
    118 H118      -49.6154  -28.3696   16.7582 H         1 UNK         0.0785 
    119 H119      -50.7802  -28.1681   15.4498 H         1 UNK         0.0785 
    120 H120      -51.3316  -28.5506   17.0754 H         1 UNK         0.0785 
    121 H121      -49.6300  -25.9132   15.1154 H         1 UNK         0.2998 
    122 H122      -47.8116  -23.0685   16.0043 H         1 UNK         0.0697 
    123 H123      -46.4922  -25.7627   15.3691 H         1 UNK         0.0825 
    124 H124      -46.0355  -24.6595   16.6575 H         1 UNK         0.0825 
    125 H125      -45.8102  -24.1832   14.9817 H         1 UNK         0.0825 
    126 H126      -47.9247  -24.6524   13.6050 H         1 UNK         0.3029 
    127 H127      -51.1512  -23.6243   12.5493 H         1 UNK         0.0897 
    128 H128      -49.8374  -21.5114   12.0398 H         1 UNK         0.0792 
    129 H129      -50.1655  -22.4932   10.6297 H         1 UNK         0.0792 
    130 H130      -48.5572  -22.5074   11.3618 H         1 UNK         0.0792 
    131 H131      -49.1079  -24.8782   11.0384 H         1 UNK         0.3086 
    132 H132      -48.9331  -27.9542   12.6718 H         1 UNK         0.0583 
    133 H133      -51.1941  -28.2942   11.4596 H         1 UNK         0.1020 
    134 H134      -50.3995  -27.7250   10.0102 H         1 UNK         0.1020 
    135 H135      -49.8045  -30.3655    8.3597 H         1 UNK         0.0694 
    136 H136      -50.5914  -31.5906    9.3103 H         1 UNK         0.0694 
    137 H137      -48.0437  -27.2296   10.0731 H         1 UNK         0.2989 
    138 H138      -45.7290  -25.0380   10.5566 H         1 UNK         0.1055 
    139 H139      -44.1695  -26.2127   12.0405 H         1 UNK         0.0806 
    140 H140      -43.6215  -26.3837   10.3813 H         1 UNK         0.0806 
    141 H141      -44.4179  -27.7305   11.1970 H         1 UNK         0.0806 
    142 H142      -46.2759  -25.7608    8.5633 H         1 UNK         0.3061 
    143 H143      -45.7812  -28.5284    6.6740 H         1 UNK         0.0734 
    144 H144      -48.1995  -28.5261    5.9843 H         1 UNK         0.0832 
    145 H145      -47.9272  -29.4502    7.4521 H         1 UNK         0.0832 
    146 H146      -48.6410  -27.8414    7.5482 H         1 UNK         0.0832 
    147 H147      -47.3540  -26.1024    6.3218 H         1 UNK         0.3156 
    148 H148      -44.5165  -24.0526    5.5058 H         1 UNK         0.0589 
    149 H149      -46.9795  -25.0355    3.9648 H         1 UNK         0.0808 
    150 H150      -46.0944  -23.5438    3.6411 H         1 UNK         0.0808 
    151 H151      -45.3161  -25.1000    3.4084 H         1 UNK         0.0808 
    152 H152      -47.3065  -23.5078    5.9497 H         1 UNK         0.3098 
    153 H153      -47.0710  -22.6771    9.3719 H         1 UNK         0.0720 
    154 H154      -47.6586  -20.3685    8.6762 H         1 UNK         0.0791 
    155 H155      -47.0538  -20.6765    7.0475 H         1 UNK         0.0791 
    156 H156      -45.9493  -20.6694    8.4153 H         1 UNK         0.0791 
    157 H157      -49.0023  -22.1836    7.2574 H         1 UNK         0.3028 
@<TRIPOS>BOND
     1    1    2 1    
     2    1   82 1    
     3    1   83 1    
     4    1   84 1    
     5    2    3 2    
     6    2    4 am   BACKBONE|DICT|INTERRES
     7    4    5 1    
     8    4   85 1    
     9    5    6 1    
    10    5   80 1    
    11    5   86 1    
    12    6    7 1    
    13    6   87 1    
    14    6   88 1    
    15    7    8 1    
    16    8    9 1    
    17    8   89 1    
    18    8   90 1    
    19    9   10 ar   
    20    9   14 ar   
    21   10   11 ar   
    22   10   91 1    
    23   11   12 ar   
    24   11   58 1    
    25   12   13 ar   
    26   12   92 1    
    27   13   14 ar   
    28   13   15 1    
    29   14   93 1    
    30   15   16 1    
    31   15   94 1    
    32   15   95 1    
    33   16   17 1    
    34   17   18 1    
    35   17   96 1    
    36   17   97 1    
    37   18   19 1    
    38   18   22 1    
    39   18   98 1    
    40   19   20 am   BACKBONE|DICT|INTERRES
    41   19   21 2    
    42   20   99 1    
    43   20  100 1    
    44   22   23 am   BACKBONE|DICT|INTERRES
    45   22  101 1    
    46   23   24 2    
    47   23   25 1    
    48   25   26 1    
    49   25   27 1    
    50   25  102 1    
    51   26  103 1    
    52   26  104 1    
    53   26  105 1    
    54   27   28 am   BACKBONE|DICT|INTERRES
    55   27  106 1    
    56   28   29 2    
    57   28   30 1    
    58   30   31 1    
    59   30   32 1    
    60   30  107 1    
    61   31  108 1    
    62   31  109 1    
    63   31  110 1    
    64   32   33 am   BACKBONE|DICT|INTERRES
    65   32  111 1    
    66   33   34 2    
    67   33   35 1    
    68   35   36 1    
    69   35   37 1    
    70   35  112 1    
    71   36  113 1    
    72   36  114 1    
    73   36  115 1    
    74   37   38 am   BACKBONE|DICT|INTERRES
    75   37  116 1    
    76   38   39 2    
    77   38   40 1    
    78   40   41 1    
    79   40   42 1    
    80   40  117 1    
    81   41  118 1    
    82   41  119 1    
    83   41  120 1    
    84   42   43 am   BACKBONE|DICT|INTERRES
    85   42  121 1    
    86   43   44 2    
    87   43   45 1    
    88   45   46 1    
    89   45   47 1    
    90   45  122 1    
    91   46  123 1    
    92   46  124 1    
    93   46  125 1    
    94   47   48 am   BACKBONE|DICT|INTERRES
    95   47  126 1    
    96   48   49 2    
    97   48   50 1    
    98   50   51 1    
    99   50   52 1    
   100   50  127 1    
   101   51  128 1    
   102   51  129 1    
   103   51  130 1    
   104   52   53 am   BACKBONE|DICT|INTERRES
   105   52  131 1    
   106   53   54 2    
   107   53   55 1    
   108   55   56 1    
   109   55   59 1    
   110   55  132 1    
   111   56   57 1    
   112   56  133 1    
   113   56  134 1    
   114   57   58 1    
   115   58  135 1    
   116   58  136 1    
   117   59   60 am   BACKBONE|DICT|INTERRES
   118   59  137 1    
   119   60   61 2    
   120   60   62 1    
   121   62   63 1    
   122   62   64 1    
   123   62  138 1    
   124   63  139 1    
   125   63  140 1    
   126   63  141 1    
   127   64   65 am   BACKBONE|DICT|INTERRES
   128   64  142 1    
   129   65   66 2    
   130   65   67 1    
   131   67   68 1    
   132   67   69 1    
   133   67  143 1    
   134   68  144 1    
   135   68  145 1    
   136   68  146 1    
   137   69   70 am   BACKBONE|DICT|INTERRES
   138   69  147 1    
   139   70   71 2    
   140   70   72 1    
   141   72   73 1    
   142   72   74 1    
   143   72  148 1    
   144   73  149 1    
   145   73  150 1    
   146   73  151 1    
   147   74   75 am   BACKBONE|DICT|INTERRES
   148   74  152 1    
   149   75   76 2    
   150   75   77 1    
   151   77   78 1    
   152   77   79 1    
   153   77  153 1    
   154   78  154 1    
   155   78  155 1    
   156   78  156 1    
   157   79   80 am   BACKBONE|DICT|INTERRES
   158   79  157 1    
   159   80   81 2    
@<TRIPOS>SUBSTRUCTURE
     1 UNK         1 GROUP             0       ****    0 ROOT    
