@<TRIPOS>MOLECULE
3R207
157   159    1
SMALL
USER_CHARGES


@<TRIPOS>ATOM
      1 CA        -52.3008  -25.1737    2.9269 C.3       0 UNK        -0.1975 
      2 C         -51.9556  -26.6068    3.3228 C.2       0 UNK         0.4852 
      3 O         -52.2070  -27.5248    2.5446 O.2       0 UNK        -0.5216 
      4 N         -51.3784  -26.8548    4.5078 N.am      1 UNK        -0.4461 
      5 CA        -51.0024  -25.8696    5.5340 C.3       1 UNK         0.0864 
      6 C6        -51.0459  -26.4766    6.9574 C.3       14 UNK        -0.0898 
      7 S7        -52.7343  -26.9762    7.4398 S.3       14 UNK        -0.2598 
      8 C8        -52.5814  -28.7852    7.5770 C.3       14 UNK         0.0286 
      9 C9        -51.8762  -29.2147    8.8574 C.ar      14 UNK        -0.0844 
     10 C10       -50.5358  -29.6137    8.8317 C.ar      14 UNK        -0.0881 
     11 C11       -49.9008  -30.0462   10.0003 C.ar      14 UNK        -0.0643 
     12 C12       -50.6242  -30.1020   11.1936 C.ar      14 UNK        -0.0930 
     13 C13       -51.9564  -29.6826   11.2402 C.ar      14 UNK        -0.0827 
     14 C14       -52.5748  -29.2333   10.0689 C.ar      14 UNK        -0.1249 
     15 C15       -52.6803  -29.6339   12.5784 C.3       14 UNK         0.0141 
     16 S16       -53.7521  -31.0722   12.8999 S.3       14 UNK        -0.2313 
     17 C17       -55.2783  -30.7100   11.9568 C.3       14 UNK        -0.0915 
     18 CA        -56.2864  -29.7524   12.6599 C.3       13 UNK         0.0968 
     19 C         -56.8807  -30.3401   13.9696 C.2       13 UNK         0.5732 
     20 N         -56.6828  -29.7402   15.1358 N.am      13 UNK        -0.7310 
     21 O         -57.5721  -31.3551   13.9211 O.2       13 UNK        -0.5035 
     22 N         -55.7737  -28.3757   12.7595 N.am      13 UNK        -0.4233 
     23 C         -55.7715  -27.5090   11.7357 C.2       13 UNK         0.4989 
     24 O         -56.3043  -27.7474   10.6501 O.2       13 UNK        -0.4996 
     25 CA        -54.9986  -26.1833   11.9089 C.3       12 UNK         0.0216 
     26 CB        -55.5214  -25.0551   10.9950 C.3       12 UNK        -0.1964 
     27 N         -54.8721  -25.7175   13.2928 N.am      12 UNK        -0.4276 
     28 C         -55.8589  -25.4039   14.1424 C.2       12 UNK         0.5020 
     29 O         -57.0530  -25.4162   13.8371 O.2       12 UNK        -0.5489 
     30 CA        -55.4389  -25.0356   15.5841 C.3       11 UNK         0.0294 
     31 CB        -56.5898  -25.2445   16.5909 C.3       11 UNK        -0.2019 
     32 N         -54.2277  -25.7114   16.0815 N.am      11 UNK        -0.4493 
     33 C         -53.9680  -27.0280   16.0725 C.2       11 UNK         0.4932 
     34 O         -54.6695  -27.8587   15.4923 O.2       11 UNK        -0.5029 
     35 CA        -52.7252  -27.4866   16.8493 C.3       10 UNK         0.0280 
     36 CB        -52.3219  -28.9448   16.5578 C.3       10 UNK        -0.1976 
     37 N         -51.5796  -26.6014   16.6252 N.am      10 UNK        -0.4242 
     38 C         -50.6636  -26.3110   17.5615 C.2       10 UNK         0.5072 
     39 O         -50.7483  -26.6917   18.7308 O.2       10 UNK        -0.5224 
     40 CA        -49.4262  -25.4846   17.1575 C.3       9 UNK         0.0343 
     41 CB        -48.1843  -26.3895   17.0951 C.3       9 UNK        -0.2003 
     42 N         -49.5519  -24.7692   15.8875 N.am      9 UNK        -0.4272 
     43 C         -50.3552  -23.7187   15.6729 C.2       9 UNK         0.4988 
     44 O         -51.0710  -23.2130   16.5378 O.2       9 UNK        -0.5108 
     45 CA        -50.3964  -23.1642   14.2379 C.3       8 UNK         0.0248 
     46 CB        -49.2651  -22.1474   14.0180 C.3       8 UNK        -0.2001 
     47 N         -50.3227  -24.2053   13.2079 N.am      8 UNK        -0.4140 
     48 C         -51.1900  -25.2194   13.0809 C.2       8 UNK         0.5028 
     49 O         -52.1577  -25.3962   13.8205 O.2       8 UNK        -0.5428 
     50 CA        -50.9007  -26.2451   11.9829 C.3       7 UNK         0.0264 
     51 CB        -51.1992  -25.6903   10.5856 C.3       7 UNK        -0.1988 
     52 N         -49.5254  -26.7283   12.0459 N.am      7 UNK        -0.4454 
     53 C         -49.0532  -27.5415   13.0013 C.2       7 UNK         0.5027 
     54 O         -49.7447  -28.0162   13.9028 O.2       7 UNK        -0.5083 
     55 CA        -47.5429  -27.8505   12.9688 C.3       6 UNK         0.0844 
     56 C56       -47.2264  -29.1701   12.2201 C.3       14 UNK        -0.0967 
     57 S57       -47.3403  -29.0564   10.3975 S.3       14 UNK        -0.2604 
     58 C58       -48.4346  -30.4507    9.9717 C.3       14 UNK         0.0134 
     59 N         -46.7470  -26.7206   12.4782 N.am      6 UNK        -0.4116 
     60 C         -46.6329  -25.5426   13.1059 C.2       5 UNK         0.5034 
     61 O         -47.1743  -25.2783   14.1793 O.2       5 UNK        -0.5045 
     62 CA        -45.8099  -24.4624   12.3910 C.3       5 UNK         0.0224 
     63 CB        -44.3041  -24.7319   12.5395 C.3       5 UNK        -0.1978 
     64 N         -46.1454  -24.3108   10.9718 N.am      5 UNK        -0.4737 
     65 C         -47.3381  -23.9422   10.4914 C.2       4 UNK         0.5027 
     66 O         -48.3368  -23.8038   11.1964 O.2       4 UNK        -0.5211 
     67 CA        -47.4400  -23.6498    8.9829 C.3       4 UNK         0.0297 
     68 CB        -46.7544  -22.3143    8.6385 C.3       4 UNK        -0.1993 
     69 N         -46.9863  -24.7200    8.0835 N.am      4 UNK        -0.4486 
     70 C         -45.7683  -25.2700    7.9524 C.2       3 UNK         0.4961 
     71 O         -44.7962  -24.9751    8.6487 O.2       3 UNK        -0.5105 
     72 CA        -45.5939  -26.3290    6.8463 C.3       3 UNK         0.0299 
     73 CB        -45.7422  -27.7438    7.4241 C.3       3 UNK        -0.1972 
     74 N         -46.5300  -26.1708    5.7303 N.am      3 UNK        -0.4305 
     75 C         -46.4810  -25.1827    4.8255 C.2       2 UNK         0.5006 
     76 O         -45.5967  -24.3262    4.7924 O.2       2 UNK        -0.5106 
     77 CA        -47.6153  -25.1310    3.7846 C.3       2 UNK         0.0296 
     78 CB        -47.1884  -25.8394    2.4886 C.3       2 UNK        -0.2002 
     79 N         -48.8942  -25.6906    4.2423 N.am      2 UNK        -0.4032 
     80 C         -49.6263  -25.2196    5.2651 C.2       1 UNK         0.5000 
     81 O         -49.2493  -24.3034    5.9967 O.2       1 UNK        -0.5238 
     82 H82       -53.0820  -24.7744    3.5731 H         1 UNK         0.0889 
     83 H83       -52.6700  -25.1400    1.9020 H         1 UNK         0.0889 
     84 H84       -51.4286  -24.5237    2.9829 H         1 UNK         0.0889 
     85 H85       -51.1839  -27.8165    4.7462 H         1 UNK         0.3028 
     86 H86       -51.7243  -25.0511    5.5190 H         1 UNK         0.0864 
     87 H87       -50.3599  -27.3201    7.0428 H         1 UNK         0.0720 
     88 H88       -50.7129  -25.7408    7.6910 H         1 UNK         0.0720 
     89 H89       -52.0694  -29.1798    6.6983 H         1 UNK         0.0814 
     90 H90       -53.5824  -29.2189    7.5602 H         1 UNK         0.0814 
     91 H91       -49.9837  -29.5888    7.9026 H         1 UNK         0.1469 
     92 H92       -50.1379  -30.4355   12.0994 H         1 UNK         0.1381 
     93 H93       -53.5969  -28.8848   10.0937 H         1 UNK         0.1206 
     94 H94       -51.9379  -29.5990   13.3745 H         1 UNK         0.0813 
     95 H95       -53.2340  -28.7041   12.6720 H         1 UNK         0.0813 
     96 H96       -55.0154  -30.3286   10.9722 H         1 UNK         0.0638 
     97 H97       -55.7662  -31.6661   11.7600 H         1 UNK         0.0638 
     98 H98       -57.1613  -29.7036   12.0086 H         1 UNK         0.0568 
     99 H99       -57.0992  -30.1415   15.9599 H         1 UNK         0.3450 
    100 H100      -56.0385  -28.9598   15.2336 H         1 UNK         0.3450 
    101 H101      -55.3492  -28.1161   13.6440 H         1 UNK         0.2987 
    102 H102      -53.9831  -26.4121   11.5880 H         1 UNK         0.0766 
    103 H103      -56.5618  -24.8105   11.2110 H         1 UNK         0.0798 
    104 H104      -54.9308  -24.1464   11.1105 H         1 UNK         0.0798 
    105 H105      -55.4649  -25.3425    9.9442 H         1 UNK         0.0798 
    106 H106      -53.9144  -25.6530   13.6434 H         1 UNK         0.3198 
    107 H107      -55.2056  -23.9700   15.5617 H         1 UNK         0.0843 
    108 H108      -57.4640  -24.6504   16.3213 H         1 UNK         0.0831 
    109 H109      -56.2978  -24.9452   17.5974 H         1 UNK         0.0831 
    110 H110      -56.9036  -26.2884   16.6286 H         1 UNK         0.0831 
    111 H111      -53.5501  -25.1103   16.5311 H         1 UNK         0.3133 
    112 H112      -53.0233  -27.4330   17.8982 H         1 UNK         0.0566 
    113 H113      -51.9510  -29.0552   15.5408 H         1 UNK         0.0814 
    114 H114      -51.5354  -29.2792   17.2342 H         1 UNK         0.0814 
    115 H115      -53.1636  -29.6276   16.6811 H         1 UNK         0.0814 
    116 H116      -51.4711  -26.2364   15.6841 H         1 UNK         0.3091 
    117 H117      -49.2659  -24.7429   17.9427 H         1 UNK         0.0702 
    118 H118      -48.0378  -26.9237   18.0349 H         1 UNK         0.0785 
    119 H119      -47.2797  -25.8099   16.9100 H         1 UNK         0.0785 
    120 H120      -48.2725  -27.1360   16.3046 H         1 UNK         0.0785 
    121 H121      -48.9466  -25.0778   15.1328 H         1 UNK         0.2998 
    122 H122      -51.3508  -22.6492   14.1119 H         1 UNK         0.0697 
    123 H123      -48.2829  -22.6151   14.0980 H         1 UNK         0.0825 
    124 H124      -49.3086  -21.3464   14.7572 H         1 UNK         0.0825 
    125 H125      -49.3339  -21.6850   13.0331 H         1 UNK         0.0825 
    126 H126      -49.5606  -24.1287   12.5356 H         1 UNK         0.3029 
    127 H127      -51.5640  -27.0918   12.1517 H         1 UNK         0.0897 
    128 H128      -51.0909  -26.4809    9.8457 H         1 UNK         0.0792 
    129 H129      -50.5332  -24.8744   10.3080 H         1 UNK         0.0792 
    130 H130      -52.2196  -25.3142   10.5129 H         1 UNK         0.0792 
    131 H131      -48.8806  -26.3682   11.3582 H         1 UNK         0.3086 
    132 H132      -47.2496  -28.0042   14.0098 H         1 UNK         0.0583 
    133 H133      -46.2067  -29.4760   12.4590 H         1 UNK         0.1020 
    134 H134      -47.8565  -29.9793   12.5925 H         1 UNK         0.1020 
    135 H135      -48.1703  -30.8025    8.9733 H         1 UNK         0.0694 
    136 H136      -48.2548  -31.2926   10.6418 H         1 UNK         0.0694 
    137 H137      -46.2885  -26.8471   11.5875 H         1 UNK         0.2989 
    138 H138      -46.0343  -23.5125   12.8814 H         1 UNK         0.1055 
    139 H139      -44.0282  -24.8447   13.5891 H         1 UNK         0.0806 
    140 H140      -43.7139  -23.9078   12.1381 H         1 UNK         0.0806 
    141 H141      -44.0011  -25.6426   12.0212 H         1 UNK         0.0806 
    142 H142      -45.4014  -24.4533   10.2905 H         1 UNK         0.3061 
    143 H143      -48.5032  -23.5284    8.7675 H         1 UNK         0.0734 
    144 H144      -45.6763  -22.3544    8.7967 H         1 UNK         0.0832 
    145 H145      -46.9293  -22.0394    7.5982 H         1 UNK         0.0832 
    146 H146      -47.1438  -21.5047    9.2575 H         1 UNK         0.0832 
    147 H147      -47.6917  -25.0171    7.4208 H         1 UNK         0.3156 
    148 H148      -44.5786  -26.2272    6.4568 H         1 UNK         0.0589 
    149 H149      -46.7643  -27.9376    7.7499 H         1 UNK         0.0808 
    150 H150      -45.4763  -28.5029    6.6883 H         1 UNK         0.0808 
    151 H151      -45.0896  -27.8885    8.2865 H         1 UNK         0.0808 
    152 H152      -47.2752  -26.8476    5.6582 H         1 UNK         0.3098 
    153 H153      -47.7874  -24.0775    3.5538 H         1 UNK         0.0720 
    154 H154      -47.9365  -25.7193    1.7046 H         1 UNK         0.0791 
    155 H155      -47.0317  -26.9076    2.6442 H         1 UNK         0.0791 
    156 H156      -46.2540  -25.4254    2.1067 H         1 UNK         0.0791 
    157 H157      -49.2712  -26.4577    3.7042 H         1 UNK         0.3028 
@<TRIPOS>BOND
     1    1    2 1    
     2    1   82 1    
     3    1   83 1    
     4    1   84 1    
     5    2    3 2    
     6    2    4 am   BACKBONE|DICT|INTERRES
     7    4    5 1    
     8    4   85 1    
     9    5    6 1    
    10    5   80 1    
    11    5   86 1    
    12    6    7 1    
    13    6   87 1    
    14    6   88 1    
    15    7    8 1    
    16    8    9 1    
    17    8   89 1    
    18    8   90 1    
    19    9   10 ar   
    20    9   14 ar   
    21   10   11 ar   
    22   10   91 1    
    23   11   12 ar   
    24   11   58 1    
    25   12   13 ar   
    26   12   92 1    
    27   13   14 ar   
    28   13   15 1    
    29   14   93 1    
    30   15   16 1    
    31   15   94 1    
    32   15   95 1    
    33   16   17 1    
    34   17   18 1    
    35   17   96 1    
    36   17   97 1    
    37   18   19 1    
    38   18   22 1    
    39   18   98 1    
    40   19   20 am   BACKBONE|DICT|INTERRES
    41   19   21 2    
    42   20   99 1    
    43   20  100 1    
    44   22   23 am   BACKBONE|DICT|INTERRES
    45   22  101 1    
    46   23   24 2    
    47   23   25 1    
    48   25   26 1    
    49   25   27 1    
    50   25  102 1    
    51   26  103 1    
    52   26  104 1    
    53   26  105 1    
    54   27   28 am   BACKBONE|DICT|INTERRES
    55   27  106 1    
    56   28   29 2    
    57   28   30 1    
    58   30   31 1    
    59   30   32 1    
    60   30  107 1    
    61   31  108 1    
    62   31  109 1    
    63   31  110 1    
    64   32   33 am   BACKBONE|DICT|INTERRES
    65   32  111 1    
    66   33   34 2    
    67   33   35 1    
    68   35   36 1    
    69   35   37 1    
    70   35  112 1    
    71   36  113 1    
    72   36  114 1    
    73   36  115 1    
    74   37   38 am   BACKBONE|DICT|INTERRES
    75   37  116 1    
    76   38   39 2    
    77   38   40 1    
    78   40   41 1    
    79   40   42 1    
    80   40  117 1    
    81   41  118 1    
    82   41  119 1    
    83   41  120 1    
    84   42   43 am   BACKBONE|DICT|INTERRES
    85   42  121 1    
    86   43   44 2    
    87   43   45 1    
    88   45   46 1    
    89   45   47 1    
    90   45  122 1    
    91   46  123 1    
    92   46  124 1    
    93   46  125 1    
    94   47   48 am   BACKBONE|DICT|INTERRES
    95   47  126 1    
    96   48   49 2    
    97   48   50 1    
    98   50   51 1    
    99   50   52 1    
   100   50  127 1    
   101   51  128 1    
   102   51  129 1    
   103   51  130 1    
   104   52   53 am   BACKBONE|DICT|INTERRES
   105   52  131 1    
   106   53   54 2    
   107   53   55 1    
   108   55   56 1    
   109   55   59 1    
   110   55  132 1    
   111   56   57 1    
   112   56  133 1    
   113   56  134 1    
   114   57   58 1    
   115   58  135 1    
   116   58  136 1    
   117   59   60 am   BACKBONE|DICT|INTERRES
   118   59  137 1    
   119   60   61 2    
   120   60   62 1    
   121   62   63 1    
   122   62   64 1    
   123   62  138 1    
   124   63  139 1    
   125   63  140 1    
   126   63  141 1    
   127   64   65 am   BACKBONE|DICT|INTERRES
   128   64  142 1    
   129   65   66 2    
   130   65   67 1    
   131   67   68 1    
   132   67   69 1    
   133   67  143 1    
   134   68  144 1    
   135   68  145 1    
   136   68  146 1    
   137   69   70 am   BACKBONE|DICT|INTERRES
   138   69  147 1    
   139   70   71 2    
   140   70   72 1    
   141   72   73 1    
   142   72   74 1    
   143   72  148 1    
   144   73  149 1    
   145   73  150 1    
   146   73  151 1    
   147   74   75 am   BACKBONE|DICT|INTERRES
   148   74  152 1    
   149   75   76 2    
   150   75   77 1    
   151   77   78 1    
   152   77   79 1    
   153   77  153 1    
   154   78  154 1    
   155   78  155 1    
   156   78  156 1    
   157   79   80 am   BACKBONE|DICT|INTERRES
   158   79  157 1    
   159   80   81 2    
@<TRIPOS>SUBSTRUCTURE
     1 UNK         1 GROUP             0       ****    0 ROOT    
