@<TRIPOS>MOLECULE
3R207
157   159    1
SMALL
USER_CHARGES


@<TRIPOS>ATOM
      1 CA        -47.3346  -27.9706    3.8837 C.3       0 UNK        -0.1975 
      2 C         -48.2109  -26.8323    4.3830 C.2       0 UNK         0.4852 
      3 O         -48.0561  -25.6977    3.9283 O.2       0 UNK        -0.5216 
      4 N         -49.1191  -27.1223    5.3252 N.am      1 UNK        -0.4461 
      5 CA        -50.0414  -26.1687    5.9541 C.3       1 UNK         0.0864 
      6 C6        -50.9767  -26.8601    6.9728 C.3       14 UNK        -0.0898 
      7 S7        -52.1071  -28.0613    6.1933 S.3       14 UNK        -0.2598 
      8 C8        -51.4953  -29.6617    6.8237 C.3       14 UNK         0.0286 
      9 C9        -51.5474  -29.7701    8.3440 C.ar      14 UNK        -0.0844 
     10 C10       -50.3923  -30.0929    9.0624 C.ar      14 UNK        -0.0881 
     11 C11       -50.4237  -30.1971   10.4566 C.ar      14 UNK        -0.0643 
     12 C12       -51.6240  -29.9627   11.1347 C.ar      14 UNK        -0.0930 
     13 C13       -52.7935  -29.6623   10.4277 C.ar      14 UNK        -0.0827 
     14 C14       -52.7486  -29.5735    9.0328 C.ar      14 UNK        -0.1249 
     15 C15       -54.1048  -29.4248   11.1643 C.3       14 UNK         0.0141 
     16 S16       -54.6298  -30.8967   12.0986 S.3       14 UNK        -0.2313 
     17 C17       -56.4289  -30.6217   12.2497 C.3       14 UNK        -0.0915 
     18 CA        -56.8660  -29.7368   13.4537 C.3       13 UNK         0.0968 
     19 C         -56.4803  -30.2740   14.8613 C.2       13 UNK         0.5732 
     20 N         -56.5346  -31.5818   15.0768 N.am      13 UNK        -0.7310 
     21 O         -56.1773  -29.5191   15.7825 O.2       13 UNK        -0.5035 
     22 N         -56.4902  -28.3301   13.2686 N.am      13 UNK        -0.4233 
     23 C         -57.1841  -27.4398   12.5492 C.2       13 UNK         0.4989 
     24 O         -58.2144  -27.7260   11.9356 O.2       13 UNK        -0.4996 
     25 CA        -56.6425  -25.9945   12.4721 C.3       12 UNK         0.0216 
     26 CB        -57.7616  -24.9519   12.2637 C.3       12 UNK        -0.1964 
     27 N         -55.7831  -25.6073   13.5958 N.am      12 UNK        -0.4276 
     28 C         -56.0923  -25.5846   14.8994 C.2       12 UNK         0.5020 
     29 O         -57.2052  -25.8488   15.3600 O.2       12 UNK        -0.5489 
     30 CA        -54.9354  -25.2183   15.8464 C.3       11 UNK         0.0294 
     31 CB        -55.4349  -24.4417   17.0778 C.3       11 UNK        -0.2019 
     32 N         -54.1317  -26.3574   16.3069 N.am      11 UNK        -0.4493 
     33 C         -53.6597  -27.4009   15.6058 C.2       11 UNK         0.4932 
     34 O         -53.9308  -27.6545   14.4322 O.2       11 UNK        -0.5029 
     35 CA        -52.6171  -28.2568   16.3382 C.3       10 UNK         0.0280 
     36 CB        -52.3181  -29.5804   15.6086 C.3       10 UNK        -0.1976 
     37 N         -51.3909  -27.4679   16.4212 N.am      10 UNK        -0.4242 
     38 C         -51.1001  -26.5941   17.3929 C.2       10 UNK         0.5072 
     39 O         -51.7529  -26.4807   18.4315 O.2       10 UNK        -0.5224 
     40 CA        -49.9307  -25.6369   17.1182 C.3       9 UNK         0.0343 
     41 CB        -48.5836  -26.3798   17.1069 C.3       9 UNK        -0.2003 
     42 N         -50.1186  -24.9237   15.8518 N.am      9 UNK        -0.4272 
     43 C         -50.9969  -23.9271   15.6571 C.2       9 UNK         0.4988 
     44 O         -51.7119  -23.4604   16.5437 O.2       9 UNK        -0.5108 
     45 CA        -51.0962  -23.3470   14.2358 C.3       8 UNK         0.0248 
     46 CB        -50.0643  -22.2249   14.0376 C.3       8 UNK        -0.2001 
     47 N         -50.9057  -24.3819   13.2174 N.am      8 UNK        -0.4140 
     48 C         -51.8903  -25.1776   12.7715 C.2       8 UNK         0.5028 
     49 O         -53.0788  -24.9991   13.0397 O.2       8 UNK        -0.5428 
     50 CA        -51.5126  -26.3701   11.8719 C.3       7 UNK         0.0264 
     51 CB        -51.9375  -26.1035   10.4208 C.3       7 UNK        -0.1988 
     52 N         -50.0915  -26.7240   11.8947 N.am      7 UNK        -0.4454 
     53 C         -49.4344  -27.2155   12.9550 C.2       7 UNK         0.5027 
     54 O         -49.9782  -27.4865   14.0243 O.2       7 UNK        -0.5083 
     55 CA        -47.9014  -27.3598   12.8444 C.3       6 UNK         0.0844 
     56 C56       -47.4732  -28.8329   12.6491 C.3       14 UNK        -0.0967 
     57 S57       -47.7820  -29.4750   10.9653 S.3       14 UNK        -0.2604 
     58 C58       -49.1759  -30.6219   11.2192 C.3       14 UNK         0.0134 
     59 N         -47.2861  -26.4719   11.8522 N.am      6 UNK        -0.4116 
     60 C         -47.3566  -25.1357   11.8294 C.2       5 UNK         0.5034 
     61 O         -47.9736  -24.4818   12.6712 O.2       5 UNK        -0.5045 
     62 CA        -46.6910  -24.3969   10.6541 C.3       5 UNK         0.0224 
     63 CB        -45.4381  -23.6280   11.1154 C.3       5 UNK        -0.1978 
     64 N         -46.4088  -25.2234    9.4691 N.am      5 UNK        -0.4737 
     65 C         -45.5064  -26.2036    9.3079 C.2       4 UNK         0.5027 
     66 O         -44.7858  -26.6294   10.2090 O.2       4 UNK        -0.5211 
     67 CA        -45.4064  -26.8258    7.9060 C.3       4 UNK         0.0297 
     68 CB        -46.3976  -27.9917    7.7557 C.3       4 UNK        -0.1993 
     69 N         -45.6531  -25.8305    6.8604 N.am      4 UNK        -0.4486 
     70 C         -44.7182  -25.0056    6.3659 C.2       3 UNK         0.4961 
     71 O         -43.5285  -25.0555    6.6793 O.2       3 UNK        -0.5105 
     72 CA        -45.1744  -23.9443    5.3478 C.3       3 UNK         0.0299 
     73 CB        -44.8873  -24.4146    3.9126 C.3       3 UNK        -0.1972 
     74 N         -46.5944  -23.6059    5.4802 N.am      3 UNK        -0.4305 
     75 C         -47.0816  -22.7812    6.4213 C.2       2 UNK         0.5006 
     76 O         -46.3757  -22.1660    7.2206 O.2       2 UNK        -0.5106 
     77 CA        -48.6129  -22.6284    6.5152 C.3       2 UNK         0.0296 
     78 CB        -49.0802  -21.4022    5.7146 C.3       2 UNK        -0.2002 
     79 N         -49.3614  -23.8100    6.0749 N.am      2 UNK        -0.4032 
     80 C         -49.2644  -25.0243    6.6328 C.2       1 UNK         0.5000 
     81 O         -48.5481  -25.2727    7.6051 O.2       1 UNK        -0.5238 
     82 H82       -47.4168  -28.0588    2.8008 H         1 UNK         0.0889 
     83 H83       -47.6169  -28.9267    4.3240 H         1 UNK         0.0889 
     84 H84       -46.2914  -27.7766    4.1320 H         1 UNK         0.0889 
     85 H85       -49.1970  -28.0716    5.6566 H         1 UNK         0.3028 
     86 H86       -50.6591  -25.7423    5.1608 H         1 UNK         0.0864 
     87 H87       -51.6038  -26.1185    7.4708 H         1 UNK         0.0720 
     88 H88       -50.3958  -27.3440    7.7601 H         1 UNK         0.0720 
     89 H89       -50.4809  -29.8212    6.4559 H         1 UNK         0.0814 
     90 H90       -52.1030  -30.4603    6.3963 H         1 UNK         0.0814 
     91 H91       -49.4629  -30.2730    8.5395 H         1 UNK         0.1469 
     92 H92       -51.6596  -30.0380   12.2127 H         1 UNK         0.1381 
     93 H93       -53.6462  -29.3374    8.4777 H         1 UNK         0.1206 
     94 H94       -53.9895  -28.5867   11.8515 H         1 UNK         0.0813 
     95 H95       -54.8878  -29.1402   10.4602 H         1 UNK         0.0813 
     96 H96       -56.9042  -31.6009   12.3192 H         1 UNK         0.0638 
     97 H97       -56.8042  -30.1979   11.3173 H         1 UNK         0.0638 
     98 H98       -57.9568  -29.7639   13.4794 H         1 UNK         0.0568 
     99 H99       -56.3046  -31.9352   15.9919 H         1 UNK         0.3450 
    100 H100      -56.7810  -32.2214   14.3386 H         1 UNK         0.3450 
    101 H101      -55.6548  -28.0340   13.7714 H         1 UNK         0.2987 
    102 H102      -56.0005  -25.9687   11.5905 H         1 UNK         0.0766 
    103 H103      -57.3550  -23.9436   12.1869 H         1 UNK         0.0798 
    104 H104      -58.4802  -24.9627   13.0839 H         1 UNK         0.0798 
    105 H105      -58.3149  -25.1458   11.3439 H         1 UNK         0.0798 
    106 H106      -54.8052  -25.4272   13.3556 H         1 UNK         0.3198 
    107 H107      -54.2608  -24.5532   15.3054 H         1 UNK         0.0843 
    108 H108      -56.0480  -25.0669   17.7281 H         1 UNK         0.0831 
    109 H109      -56.0427  -23.5863   16.7798 H         1 UNK         0.0831 
    110 H110      -54.6028  -24.0551   17.6672 H         1 UNK         0.0831 
    111 H111      -53.7874  -26.2765   17.2548 H         1 UNK         0.3133 
    112 H112      -52.9931  -28.4917   17.3361 H         1 UNK         0.0566 
    113 H113      -51.9226  -29.4104   14.6065 H         1 UNK         0.0814 
    114 H114      -51.5917  -30.1796   16.1571 H         1 UNK         0.0814 
    115 H115      -53.2242  -30.1787   15.5032 H         1 UNK         0.0814 
    116 H116      -50.8234  -27.4561   15.5731 H         1 UNK         0.3091 
    117 H117      -49.9019  -24.9017   17.9254 H         1 UNK         0.0702 
    118 H118      -47.7524  -25.6879   16.9700 H         1 UNK         0.0785 
    119 H119      -48.5308  -27.1262   16.3139 H         1 UNK         0.0785 
    120 H120      -48.4196  -26.8986   18.0523 H         1 UNK         0.0785 
    121 H121      -49.5911  -25.2608   15.0604 H         1 UNK         0.2998 
    122 H122      -52.0900  -22.9083   14.1215 H         1 UNK         0.0697 
    123 H123      -49.0438  -22.5766   14.1925 H         1 UNK         0.0825 
    124 H124      -50.2366  -21.4112   14.7433 H         1 UNK         0.0825 
    125 H125      -50.1247  -21.8024   13.0345 H         1 UNK         0.0825 
    126 H126      -49.9511  -24.5518   12.9161 H         1 UNK         0.3029 
    127 H127      -52.0716  -27.2298   12.2455 H         1 UNK         0.0897 
    128 H128      -53.0032  -25.8788   10.3590 H         1 UNK         0.0792 
    129 H129      -51.7581  -26.9776    9.7968 H         1 UNK         0.0792 
    130 H130      -51.3969  -25.2609    9.9879 H         1 UNK         0.0792 
    131 H131      -49.5660  -26.5504   11.0505 H         1 UNK         0.3086 
    132 H132      -47.5081  -27.0412   13.8120 H         1 UNK         0.0583 
    133 H133      -46.4001  -28.9144   12.8298 H         1 UNK         0.1020 
    134 H134      -47.9316  -29.4743   13.4039 H         1 UNK         0.1020 
    135 H135      -48.8756  -31.6107   10.8701 H         1 UNK         0.0694 
    136 H136      -49.3968  -30.7346   12.2810 H         1 UNK         0.0694 
    137 H137      -46.7230  -26.9208   11.1413 H         1 UNK         0.2989 
    138 H138      -47.4210  -23.6573   10.3203 H         1 UNK         0.1055 
    139 H139      -45.6839  -22.9283   11.9154 H         1 UNK         0.0806 
    140 H140      -45.0085  -23.0476   10.2986 H         1 UNK         0.0806 
    141 H141      -44.6653  -24.2956   11.4973 H         1 UNK         0.0806 
    142 H142      -47.0418  -25.0610    8.6882 H         1 UNK         0.3061 
    143 H143      -44.3972  -27.2268    7.7884 H         1 UNK         0.0734 
    144 H144      -46.3327  -28.4439    6.7665 H         1 UNK         0.0832 
    145 H145      -46.1792  -28.7767    8.4804 H         1 UNK         0.0832 
    146 H146      -47.4297  -27.6795    7.9186 H         1 UNK         0.0832 
    147 H147      -46.6184  -25.6775    6.6018 H         1 UNK         0.3156 
    148 H148      -44.5839  -23.0427    5.5253 H         1 UNK         0.0589 
    149 H149      -45.4119  -25.3396    3.6736 H         1 UNK         0.0808 
    150 H150      -45.1827  -23.6624    3.1811 H         1 UNK         0.0808 
    151 H151      -43.8219  -24.6020    3.7716 H         1 UNK         0.0808 
    152 H152      -47.2373  -24.0951    4.8635 H         1 UNK         0.3098 
    153 H153      -48.8559  -22.4618    7.5669 H         1 UNK         0.0720 
    154 H154      -50.1469  -21.2220    5.8493 H         1 UNK         0.0791 
    155 H155      -48.8901  -21.5203    4.6469 H         1 UNK         0.0791 
    156 H156      -48.5583  -20.5012    6.0406 H         1 UNK         0.0791 
    157 H157      -49.9400  -23.6969    5.2546 H         1 UNK         0.3028 
@<TRIPOS>BOND
     1    1    2 1    
     2    1   82 1    
     3    1   83 1    
     4    1   84 1    
     5    2    3 2    
     6    2    4 am   BACKBONE|DICT|INTERRES
     7    4    5 1    
     8    4   85 1    
     9    5    6 1    
    10    5   80 1    
    11    5   86 1    
    12    6    7 1    
    13    6   87 1    
    14    6   88 1    
    15    7    8 1    
    16    8    9 1    
    17    8   89 1    
    18    8   90 1    
    19    9   10 ar   
    20    9   14 ar   
    21   10   11 ar   
    22   10   91 1    
    23   11   12 ar   
    24   11   58 1    
    25   12   13 ar   
    26   12   92 1    
    27   13   14 ar   
    28   13   15 1    
    29   14   93 1    
    30   15   16 1    
    31   15   94 1    
    32   15   95 1    
    33   16   17 1    
    34   17   18 1    
    35   17   96 1    
    36   17   97 1    
    37   18   19 1    
    38   18   22 1    
    39   18   98 1    
    40   19   20 am   BACKBONE|DICT|INTERRES
    41   19   21 2    
    42   20   99 1    
    43   20  100 1    
    44   22   23 am   BACKBONE|DICT|INTERRES
    45   22  101 1    
    46   23   24 2    
    47   23   25 1    
    48   25   26 1    
    49   25   27 1    
    50   25  102 1    
    51   26  103 1    
    52   26  104 1    
    53   26  105 1    
    54   27   28 am   BACKBONE|DICT|INTERRES
    55   27  106 1    
    56   28   29 2    
    57   28   30 1    
    58   30   31 1    
    59   30   32 1    
    60   30  107 1    
    61   31  108 1    
    62   31  109 1    
    63   31  110 1    
    64   32   33 am   BACKBONE|DICT|INTERRES
    65   32  111 1    
    66   33   34 2    
    67   33   35 1    
    68   35   36 1    
    69   35   37 1    
    70   35  112 1    
    71   36  113 1    
    72   36  114 1    
    73   36  115 1    
    74   37   38 am   BACKBONE|DICT|INTERRES
    75   37  116 1    
    76   38   39 2    
    77   38   40 1    
    78   40   41 1    
    79   40   42 1    
    80   40  117 1    
    81   41  118 1    
    82   41  119 1    
    83   41  120 1    
    84   42   43 am   BACKBONE|DICT|INTERRES
    85   42  121 1    
    86   43   44 2    
    87   43   45 1    
    88   45   46 1    
    89   45   47 1    
    90   45  122 1    
    91   46  123 1    
    92   46  124 1    
    93   46  125 1    
    94   47   48 am   BACKBONE|DICT|INTERRES
    95   47  126 1    
    96   48   49 2    
    97   48   50 1    
    98   50   51 1    
    99   50   52 1    
   100   50  127 1    
   101   51  128 1    
   102   51  129 1    
   103   51  130 1    
   104   52   53 am   BACKBONE|DICT|INTERRES
   105   52  131 1    
   106   53   54 2    
   107   53   55 1    
   108   55   56 1    
   109   55   59 1    
   110   55  132 1    
   111   56   57 1    
   112   56  133 1    
   113   56  134 1    
   114   57   58 1    
   115   58  135 1    
   116   58  136 1    
   117   59   60 am   BACKBONE|DICT|INTERRES
   118   59  137 1    
   119   60   61 2    
   120   60   62 1    
   121   62   63 1    
   122   62   64 1    
   123   62  138 1    
   124   63  139 1    
   125   63  140 1    
   126   63  141 1    
   127   64   65 am   BACKBONE|DICT|INTERRES
   128   64  142 1    
   129   65   66 2    
   130   65   67 1    
   131   67   68 1    
   132   67   69 1    
   133   67  143 1    
   134   68  144 1    
   135   68  145 1    
   136   68  146 1    
   137   69   70 am   BACKBONE|DICT|INTERRES
   138   69  147 1    
   139   70   71 2    
   140   70   72 1    
   141   72   73 1    
   142   72   74 1    
   143   72  148 1    
   144   73  149 1    
   145   73  150 1    
   146   73  151 1    
   147   74   75 am   BACKBONE|DICT|INTERRES
   148   74  152 1    
   149   75   76 2    
   150   75   77 1    
   151   77   78 1    
   152   77   79 1    
   153   77  153 1    
   154   78  154 1    
   155   78  155 1    
   156   78  156 1    
   157   79   80 am   BACKBONE|DICT|INTERRES
   158   79  157 1    
   159   80   81 2    
@<TRIPOS>SUBSTRUCTURE
     1 UNK         1 GROUP             0       ****    0 ROOT    
