@<TRIPOS>MOLECULE
3R207
157   159    1
SMALL
USER_CHARGES


@<TRIPOS>ATOM
      1 CA        -50.2830  -28.4587   10.7677 C.3       0 UNK        -0.1975 
      2 C         -49.4962  -29.3184    9.7958 C.2       0 UNK         0.4852 
      3 O         -48.8757  -30.2996   10.2041 O.2       0 UNK        -0.5216 
      4 N         -49.5019  -28.9451    8.5108 N.am      1 UNK        -0.4461 
      5 CA        -48.7611  -29.6103    7.4307 C.3       1 UNK         0.0864 
      6 C6        -49.3945  -29.3220    6.0453 C.3       14 UNK        -0.0898 
      7 S7        -49.6587  -27.5465    5.6893 S.3       14 UNK        -0.2598 
      8 C8        -51.4303  -27.5005    5.2659 C.3       14 UNK         0.0286 
      9 C9        -52.3181  -27.2061    6.4694 C.ar      14 UNK        -0.0844 
     10 C10       -52.9109  -25.9472    6.6053 C.ar      14 UNK        -0.0881 
     11 C11       -53.7882  -25.6781    7.6613 C.ar      14 UNK        -0.0643 
     12 C12       -54.0608  -26.6835    8.5937 C.ar      14 UNK        -0.0930 
     13 C13       -53.4685  -27.9481    8.4799 C.ar      14 UNK        -0.0827 
     14 C14       -52.6035  -28.2011    7.4096 C.ar      14 UNK        -0.1249 
     15 C15       -53.7939  -29.0676    9.4678 C.3       14 UNK         0.0141 
     16 S16       -53.8313  -28.5003   11.1982 S.3       14 UNK        -0.2313 
     17 C17       -53.9203  -30.0663   12.1295 C.3       14 UNK        -0.0915 
     18 CA        -55.2704  -30.2329   12.8772 C.3       13 UNK         0.0968 
     19 C         -55.4318  -31.6609   13.4787 C.2       13 UNK         0.5732 
     20 N         -55.8202  -31.8295   14.7377 N.am      13 UNK        -0.7310 
     21 O         -55.2170  -32.6487   12.7797 O.2       13 UNK        -0.5035 
     22 N         -55.4938  -29.1501   13.8511 N.am      13 UNK        -0.4233 
     23 C         -56.6944  -28.6299   14.1332 C.2       13 UNK         0.4989 
     24 O         -57.7341  -28.9723   13.5653 O.2       13 UNK        -0.4996 
     25 CA        -56.7459  -27.5538   15.2395 C.3       12 UNK         0.0216 
     26 CB        -58.1902  -27.1735   15.6287 C.3       12 UNK        -0.1964 
     27 N         -55.9834  -27.8888   16.4498 N.am      12 UNK        -0.4276 
     28 C         -56.0381  -29.0108   17.1820 C.2       12 UNK         0.5020 
     29 O         -56.7061  -29.9991   16.8722 O.2       12 UNK        -0.5489 
     30 CA        -55.1875  -29.0313   18.4714 C.3       11 UNK         0.0294 
     31 CB        -55.2533  -30.3854   19.2029 C.3       11 UNK        -0.2019 
     32 N         -53.7834  -28.7036   18.2120 N.am      11 UNK        -0.4493 
     33 C         -53.2969  -27.4764   17.9882 C.2       11 UNK         0.4932 
     34 O         -53.9858  -26.4557   18.0369 O.2       11 UNK        -0.5029 
     35 CA        -51.8182  -27.3599   17.5716 C.3       10 UNK         0.0280 
     36 CB        -51.0033  -28.6617   17.7497 C.3       10 UNK        -0.1976 
     37 N         -51.6959  -26.8684   16.1940 N.am      10 UNK        -0.4242 
     38 C         -52.2529  -27.4026   15.0950 C.2       10 UNK         0.5072 
     39 O         -52.9747  -28.4023   15.0981 O.2       10 UNK        -0.5224 
     40 CA        -51.9903  -26.6996   13.7536 C.3       9 UNK         0.0343 
     41 CB        -53.2110  -25.8514   13.3625 C.3       9 UNK        -0.2003 
     42 N         -50.7732  -25.8815   13.6758 N.am      9 UNK        -0.4272 
     43 C         -49.5192  -26.3442   13.8159 C.2       9 UNK         0.4988 
     44 O         -49.2618  -27.5054   14.1341 O.2       9 UNK        -0.5108 
     45 CA        -48.3503  -25.3798   13.5290 C.3       8 UNK         0.0248 
     46 CB        -47.2675  -26.0555   12.6672 C.3       8 UNK        -0.2001 
     47 N         -48.7864  -24.1581   12.8500 N.am      8 UNK        -0.4140 
     48 C         -49.0338  -22.9861   13.4531 C.2       8 UNK         0.5028 
     49 O         -48.8784  -22.7938   14.6593 O.2       8 UNK        -0.5428 
     50 CA        -49.5722  -21.8365   12.5787 C.3       7 UNK         0.0264 
     51 CB        -48.4763  -20.7985   12.2969 C.3       7 UNK        -0.1988 
     52 N         -50.1536  -22.2945   11.3120 N.am      7 UNK        -0.4454 
     53 C         -51.3191  -22.9561   11.2308 C.2       7 UNK         0.5027 
     54 O         -52.0251  -23.1793   12.2129 O.2       7 UNK        -0.5083 
     55 CA        -51.7783  -23.4692    9.8487 C.3       6 UNK         0.0844 
     56 C56       -52.9170  -22.5677    9.3074 C.3       14 UNK        -0.0967 
     57 S57       -53.3975  -22.9034    7.5779 S.3       14 UNK        -0.2604 
     58 C58       -54.5109  -24.3367    7.7483 C.3       14 UNK         0.0134 
     59 N         -50.6867  -23.6266    8.8857 N.am      6 UNK        -0.4116 
     60 C         -49.6381  -24.4501    9.0003 C.2       5 UNK         0.5034 
     61 O         -49.4106  -25.1432    9.9943 O.2       5 UNK        -0.5045 
     62 CA        -48.6604  -24.4947    7.8126 C.3       5 UNK         0.0224 
     63 CB        -49.1277  -23.7083    6.5669 C.3       5 UNK        -0.1978 
     64 N         -47.3036  -24.0859    8.1848 N.am      5 UNK        -0.4737 
     65 C         -46.9196  -22.9601    8.8072 C.2       4 UNK         0.5027 
     66 O         -47.7053  -22.0879    9.1816 O.2       4 UNK        -0.5211 
     67 CA        -45.4101  -22.7713    9.0748 C.3       4 UNK         0.0297 
     68 CB        -45.1252  -22.7400   10.5856 C.3       4 UNK        -0.1993 
     69 N         -44.5792  -23.8166    8.4702 N.am      4 UNK        -0.4486 
     70 C         -44.1715  -23.8458    7.1932 C.2       3 UNK         0.4961 
     71 O         -44.3660  -22.9345    6.3889 O.2       3 UNK        -0.5105 
     72 CA        -43.4535  -25.1305    6.7270 C.3       3 UNK         0.0299 
     73 CB        -41.9293  -24.9653    6.8382 C.3       3 UNK        -0.1972 
     74 N         -43.8696  -26.3358    7.4602 N.am      3 UNK        -0.4305 
     75 C         -45.1209  -26.8173    7.4748 C.2       2 UNK         0.5006 
     76 O         -46.0386  -26.3289    6.8134 O.2       2 UNK        -0.5106 
     77 CA        -45.4058  -27.9659    8.4562 C.3       2 UNK         0.0296 
     78 CB        -45.1864  -27.5026    9.9087 C.3       2 UNK        -0.2002 
     79 N         -46.7896  -28.4230    8.3313 N.am      2 UNK        -0.4032 
     80 C         -47.2381  -29.3271    7.4505 C.2       1 UNK         0.5000 
     81 O         -46.5000  -29.9453    6.6798 O.2       1 UNK        -0.5238 
     82 H82       -50.8785  -29.0879   11.4279 H         1 UNK         0.0889 
     83 H83       -50.9510  -27.7654   10.2561 H         1 UNK         0.0889 
     84 H84       -49.5963  -27.8768   11.3780 H         1 UNK         0.0889 
     85 H85       -50.0372  -28.1364    8.2234 H         1 UNK         0.3028 
     86 H86       -48.8493  -30.6865    7.5957 H         1 UNK         0.0864 
     87 H87       -50.3472  -29.8480    5.9823 H         1 UNK         0.0720 
     88 H88       -48.7884  -29.7463    5.2426 H         1 UNK         0.0720 
     89 H89       -51.5719  -26.7335    4.5030 H         1 UNK         0.0814 
     90 H90       -51.7360  -28.4364    4.7964 H         1 UNK         0.0814 
     91 H91       -52.7155  -25.1802    5.8684 H         1 UNK         0.1469 
     92 H92       -54.7555  -26.4891    9.3991 H         1 UNK         0.1381 
     93 H93       -52.1681  -29.1837    7.2955 H         1 UNK         0.1206 
     94 H94       -54.7612  -29.5013    9.2115 H         1 UNK         0.0813 
     95 H95       -53.0561  -29.8668    9.3810 H         1 UNK         0.0813 
     96 H96       -53.0897  -30.0913   12.8369 H         1 UNK         0.0638 
     97 H97       -53.7540  -30.8939   11.4381 H         1 UNK         0.0638 
     98 H98       -56.0485  -30.1703   12.1144 H         1 UNK         0.0568 
     99 H99       -56.0577  -31.0419   15.3326 H         1 UNK         0.3450 
    100 H100      -55.9217  -32.7662   15.0930 H         1 UNK         0.3450 
    101 H101      -54.6741  -28.8503   14.3737 H         1 UNK         0.2987 
    102 H102      -56.2743  -26.6657   14.8169 H         1 UNK         0.0766 
    103 H103      -58.7516  -26.8190   14.7633 H         1 UNK         0.0798 
    104 H104      -58.2044  -26.3744   16.3699 H         1 UNK         0.0798 
    105 H105      -58.7312  -28.0249   16.0436 H         1 UNK         0.0798 
    106 H106      -55.3605  -27.1643   16.7963 H         1 UNK         0.3198 
    107 H107      -55.6055  -28.2746   19.1392 H         1 UNK         0.0843 
    108 H108      -56.2821  -30.6406   19.4607 H         1 UNK         0.0831 
    109 H109      -54.6854  -30.3633   20.1331 H         1 UNK         0.0831 
    110 H110      -54.8612  -31.1964   18.5876 H         1 UNK         0.0831 
    111 H111      -53.1584  -29.4858   18.0802 H         1 UNK         0.3133 
    112 H112      -51.3758  -26.5999   18.2172 H         1 UNK         0.0566 
    113 H113      -49.9517  -28.4940   17.5161 H         1 UNK         0.0814 
    114 H114      -51.0463  -29.0190   18.7796 H         1 UNK         0.0814 
    115 H115      -51.3539  -29.4644   17.0998 H         1 UNK         0.0814 
    116 H116      -51.1577  -26.0223   16.0754 H         1 UNK         0.3091 
    117 H117      -51.8770  -27.4939   13.0166 H         1 UNK         0.0702 
    118 H118      -53.2996  -24.9572   13.9803 H         1 UNK         0.0785 
    119 H119      -54.1378  -26.4159   13.4703 H         1 UNK         0.0785 
    120 H120      -53.1550  -25.5426   12.3190 H         1 UNK         0.0785 
    121 H121      -50.9038  -24.9145   13.4096 H         1 UNK         0.2998 
    122 H122      -47.9016  -25.1317   14.4929 H         1 UNK         0.0697 
    123 H123      -47.6569  -26.3520   11.6933 H         1 UNK         0.0825 
    124 H124      -46.8774  -26.9525   13.1499 H         1 UNK         0.0825 
    125 H125      -46.4211  -25.3896   12.5028 H         1 UNK         0.0825 
    126 H126      -48.9718  -24.2483   11.8561 H         1 UNK         0.3029 
    127 H127      -50.3586  -21.3413   13.1530 H         1 UNK         0.0897 
    128 H128      -48.8694  -19.9454   11.7438 H         1 UNK         0.0792 
    129 H129      -48.0511  -20.4154   13.2256 H         1 UNK         0.0792 
    130 H130      -47.6609  -21.2258   11.7170 H         1 UNK         0.0792 
    131 H131      -49.5991  -22.1561   10.4741 H         1 UNK         0.3086 
    132 H132      -52.1915  -24.4676   10.0080 H         1 UNK         0.0583 
    133 H133      -53.7998  -22.6474    9.9450 H         1 UNK         0.1020 
    134 H134      -52.6191  -21.5177    9.3488 H         1 UNK         0.1020 
    135 H135      -55.0766  -24.2527    8.6774 H         1 UNK         0.0694 
    136 H136      -55.2444  -24.2966    6.9422 H         1 UNK         0.0694 
    137 H137      -50.7839  -23.0953    8.0329 H         1 UNK         0.2989 
    138 H138      -48.5918  -25.5455    7.5311 H         1 UNK         0.1055 
    139 H139      -50.1070  -24.0484    6.2260 H         1 UNK         0.0806 
    140 H140      -48.4381  -23.8600    5.7362 H         1 UNK         0.0806 
    141 H141      -49.1848  -22.6350    6.7522 H         1 UNK         0.0806 
    142 H142      -46.5841  -24.7355    7.8868 H         1 UNK         0.3061 
    143 H143      -45.1224  -21.8057    8.6534 H         1 UNK         0.0734 
    144 H144      -45.6000  -21.8782   11.0525 H         1 UNK         0.0832 
    145 H145      -45.4976  -23.6332   11.0876 H         1 UNK         0.0832 
    146 H146      -44.0572  -22.6588   10.7890 H         1 UNK         0.0832 
    147 H147      -44.3484  -24.6042    9.0574 H         1 UNK         0.3156 
    148 H148      -43.7045  -25.2808    5.6748 H         1 UNK         0.0589 
    149 H149      -41.6100  -24.8341    7.8729 H         1 UNK         0.0808 
    150 H150      -41.4047  -25.8295    6.4303 H         1 UNK         0.0808 
    151 H151      -41.5906  -24.0911    6.2800 H         1 UNK         0.0808 
    152 H152      -43.1640  -26.7915    8.0218 H         1 UNK         0.3098 
    153 H153      -44.7264  -28.7919    8.2357 H         1 UNK         0.0720 
    154 H154      -45.4714  -28.2788   10.6198 H         1 UNK         0.0791 
    155 H155      -45.7689  -26.6099   10.1390 H         1 UNK         0.0791 
    156 H156      -44.1388  -27.2684   10.1002 H         1 UNK         0.0791 
    157 H157      -47.4754  -27.9455    8.8956 H         1 UNK         0.3028 
@<TRIPOS>BOND
     1    1    2 1    
     2    1   82 1    
     3    1   83 1    
     4    1   84 1    
     5    2    3 2    
     6    2    4 am   BACKBONE|DICT|INTERRES
     7    4    5 1    
     8    4   85 1    
     9    5    6 1    
    10    5   80 1    
    11    5   86 1    
    12    6    7 1    
    13    6   87 1    
    14    6   88 1    
    15    7    8 1    
    16    8    9 1    
    17    8   89 1    
    18    8   90 1    
    19    9   10 ar   
    20    9   14 ar   
    21   10   11 ar   
    22   10   91 1    
    23   11   12 ar   
    24   11   58 1    
    25   12   13 ar   
    26   12   92 1    
    27   13   14 ar   
    28   13   15 1    
    29   14   93 1    
    30   15   16 1    
    31   15   94 1    
    32   15   95 1    
    33   16   17 1    
    34   17   18 1    
    35   17   96 1    
    36   17   97 1    
    37   18   19 1    
    38   18   22 1    
    39   18   98 1    
    40   19   20 am   BACKBONE|DICT|INTERRES
    41   19   21 2    
    42   20   99 1    
    43   20  100 1    
    44   22   23 am   BACKBONE|DICT|INTERRES
    45   22  101 1    
    46   23   24 2    
    47   23   25 1    
    48   25   26 1    
    49   25   27 1    
    50   25  102 1    
    51   26  103 1    
    52   26  104 1    
    53   26  105 1    
    54   27   28 am   BACKBONE|DICT|INTERRES
    55   27  106 1    
    56   28   29 2    
    57   28   30 1    
    58   30   31 1    
    59   30   32 1    
    60   30  107 1    
    61   31  108 1    
    62   31  109 1    
    63   31  110 1    
    64   32   33 am   BACKBONE|DICT|INTERRES
    65   32  111 1    
    66   33   34 2    
    67   33   35 1    
    68   35   36 1    
    69   35   37 1    
    70   35  112 1    
    71   36  113 1    
    72   36  114 1    
    73   36  115 1    
    74   37   38 am   BACKBONE|DICT|INTERRES
    75   37  116 1    
    76   38   39 2    
    77   38   40 1    
    78   40   41 1    
    79   40   42 1    
    80   40  117 1    
    81   41  118 1    
    82   41  119 1    
    83   41  120 1    
    84   42   43 am   BACKBONE|DICT|INTERRES
    85   42  121 1    
    86   43   44 2    
    87   43   45 1    
    88   45   46 1    
    89   45   47 1    
    90   45  122 1    
    91   46  123 1    
    92   46  124 1    
    93   46  125 1    
    94   47   48 am   BACKBONE|DICT|INTERRES
    95   47  126 1    
    96   48   49 2    
    97   48   50 1    
    98   50   51 1    
    99   50   52 1    
   100   50  127 1    
   101   51  128 1    
   102   51  129 1    
   103   51  130 1    
   104   52   53 am   BACKBONE|DICT|INTERRES
   105   52  131 1    
   106   53   54 2    
   107   53   55 1    
   108   55   56 1    
   109   55   59 1    
   110   55  132 1    
   111   56   57 1    
   112   56  133 1    
   113   56  134 1    
   114   57   58 1    
   115   58  135 1    
   116   58  136 1    
   117   59   60 am   BACKBONE|DICT|INTERRES
   118   59  137 1    
   119   60   61 2    
   120   60   62 1    
   121   62   63 1    
   122   62   64 1    
   123   62  138 1    
   124   63  139 1    
   125   63  140 1    
   126   63  141 1    
   127   64   65 am   BACKBONE|DICT|INTERRES
   128   64  142 1    
   129   65   66 2    
   130   65   67 1    
   131   67   68 1    
   132   67   69 1    
   133   67  143 1    
   134   68  144 1    
   135   68  145 1    
   136   68  146 1    
   137   69   70 am   BACKBONE|DICT|INTERRES
   138   69  147 1    
   139   70   71 2    
   140   70   72 1    
   141   72   73 1    
   142   72   74 1    
   143   72  148 1    
   144   73  149 1    
   145   73  150 1    
   146   73  151 1    
   147   74   75 am   BACKBONE|DICT|INTERRES
   148   74  152 1    
   149   75   76 2    
   150   75   77 1    
   151   77   78 1    
   152   77   79 1    
   153   77  153 1    
   154   78  154 1    
   155   78  155 1    
   156   78  156 1    
   157   79   80 am   BACKBONE|DICT|INTERRES
   158   79  157 1    
   159   80   81 2    
@<TRIPOS>SUBSTRUCTURE
     1 UNK         1 GROUP             0       ****    0 ROOT    
