@<TRIPOS>MOLECULE
3R207
157   159    1
SMALL
USER_CHARGES


@<TRIPOS>ATOM
      1 CA        -47.7023  -31.6751    2.0425 C.3       0 UNK        -0.1975 
      2 C         -48.1852  -30.6036    3.0093 C.2       0 UNK         0.4852 
      3 O         -49.0396  -29.7936    2.6457 O.2       0 UNK        -0.5216 
      4 N         -47.6511  -30.5998    4.2379 N.am      1 UNK        -0.4461 
      5 CA        -47.9414  -29.6033    5.2742 C.3       1 UNK         0.0864 
      6 C6        -47.7197  -30.1943    6.6940 C.3       14 UNK        -0.0898 
      7 S7        -48.8376  -29.4602    7.9343 S.3       14 UNK        -0.2598 
      8 C8        -50.3147  -30.5085    7.7319 C.3       14 UNK         0.0286 
      9 C9        -51.5371  -29.8860    8.3918 C.ar      14 UNK        -0.0844 
     10 C10       -51.9981  -28.6387    7.9612 C.ar      14 UNK        -0.0881 
     11 C11       -53.1141  -28.0470    8.5566 C.ar      14 UNK        -0.0643 
     12 C12       -53.7885  -28.7234    9.5771 C.ar      14 UNK        -0.0930 
     13 C13       -53.3455  -29.9769   10.0121 C.ar      14 UNK        -0.0827 
     14 C14       -52.2182  -30.5535    9.4156 C.ar      14 UNK        -0.1249 
     15 C15       -54.0742  -30.6944   11.1399 C.3       14 UNK         0.0141 
     16 S16       -53.1644  -30.4848   12.6985 S.3       14 UNK        -0.2313 
     17 C17       -54.4401  -30.6273   14.0009 C.3       14 UNK        -0.0915 
     18 CA        -55.5779  -29.5666   13.9499 C.3       13 UNK         0.0968 
     19 C         -56.4558  -29.6125   15.2318 C.2       13 UNK         0.5732 
     20 N         -56.5747  -28.5402   16.0047 N.am      13 UNK        -0.7310 
     21 O         -57.0562  -30.6441   15.5243 O.2       13 UNK        -0.5035 
     22 N         -55.0878  -28.2256   13.5928 N.am      13 UNK        -0.4233 
     23 C         -55.7885  -27.3562   12.8549 C.2       13 UNK         0.4989 
     24 O         -56.9619  -27.5351   12.5206 O.2       13 UNK        -0.4996 
     25 CA        -55.0324  -26.1153   12.3553 C.3       12 UNK         0.0216 
     26 CB        -55.8926  -25.1956   11.4586 C.3       12 UNK        -0.1964 
     27 N         -54.3863  -25.3652   13.4325 N.am      12 UNK        -0.4276 
     28 C         -54.9802  -24.6509   14.3966 C.2       12 UNK         0.5020 
     29 O         -56.2008  -24.5283   14.5204 O.2       12 UNK        -0.5489 
     30 CA        -54.0286  -23.9655   15.3957 C.3       11 UNK         0.0294 
     31 CB        -54.7400  -22.9322   16.2953 C.3       11 UNK        -0.2019 
     32 N         -53.2899  -24.9381   16.2090 N.am      11 UNK        -0.4493 
     33 C         -53.8165  -25.8954   16.9906 C.2       11 UNK         0.4932 
     34 O         -55.0262  -26.0596   17.1564 O.2       11 UNK        -0.5029 
     35 CA        -52.8259  -26.8266   17.7179 C.3       10 UNK         0.0280 
     36 CB        -53.4990  -28.1159   18.2371 C.3       10 UNK        -0.1976 
     37 N         -51.6355  -27.1698   16.9336 N.am      10 UNK        -0.4242 
     38 C         -51.5877  -27.7444   15.7238 C.2       10 UNK         0.5072 
     39 O         -52.5775  -27.9619   15.0226 O.2       10 UNK        -0.5224 
     40 CA        -50.1800  -28.1364   15.2365 C.3       9 UNK         0.0343 
     41 CB        -50.2088  -29.0397   13.9937 C.3       9 UNK        -0.2003 
     42 N         -49.3599  -26.9597   14.9538 N.am      9 UNK        -0.4272 
     43 C         -48.7835  -26.1788   15.8768 C.2       9 UNK         0.4988 
     44 O         -48.8532  -26.3919   17.0890 O.2       9 UNK        -0.5108 
     45 CA        -48.0228  -24.9415   15.3742 C.3       8 UNK         0.0248 
     46 CB        -46.5850  -25.3180   14.9837 C.3       8 UNK        -0.2001 
     47 N         -48.6816  -24.2635   14.2535 N.am      8 UNK        -0.4140 
     48 C         -49.8944  -23.6924   14.3141 C.2       8 UNK         0.5028 
     49 O         -50.5996  -23.6800   15.3249 O.2       8 UNK        -0.5428 
     50 CA        -50.4221  -23.0411   13.0233 C.3       7 UNK         0.0264 
     51 CB        -49.7136  -21.7051   12.7485 C.3       7 UNK        -0.1988 
     52 N         -50.3073  -23.9131   11.8523 N.am      7 UNK        -0.4454 
     53 C         -50.9393  -25.0902   11.7229 C.2       7 UNK         0.5027 
     54 O         -51.7087  -25.5435   12.5716 O.2       7 UNK        -0.5083 
     55 CA        -50.6233  -25.9182   10.4562 C.3       6 UNK         0.0844 
     56 C56       -51.3177  -25.3535    9.1884 C.3       14 UNK        -0.0967 
     57 S57       -53.1406  -25.3603    9.2590 S.3       14 UNK        -0.2604 
     58 C58       -53.5918  -26.6803    8.0903 C.3       14 UNK         0.0134 
     59 N         -49.1782  -26.0384   10.2417 N.am      6 UNK        -0.4116 
     60 C         -48.2835  -26.5214   11.1157 C.2       5 UNK         0.5034 
     61 O         -48.5715  -27.0012   12.2091 O.2       5 UNK        -0.5045 
     62 CA        -46.8015  -26.3769   10.7381 C.3       5 UNK         0.0224 
     63 CB        -46.3634  -27.4696    9.7515 C.3       5 UNK        -0.1978 
     64 N         -46.4998  -25.0530   10.1894 N.am      5 UNK        -0.4737 
     65 C         -46.5537  -23.9139   10.8946 C.2       4 UNK         0.5027 
     66 O         -46.8270  -23.8610   12.0924 O.2       4 UNK        -0.5211 
     67 CA        -46.2992  -22.6107   10.1216 C.3       4 UNK         0.0297 
     68 CB        -44.7915  -22.3493    9.9806 C.3       4 UNK        -0.1993 
     69 N         -46.9272  -22.6151    8.7985 N.am      4 UNK        -0.4486 
     70 C         -48.2518  -22.6300    8.5923 C.2       3 UNK         0.4961 
     71 O         -49.0883  -22.6012    9.4955 O.2       3 UNK        -0.5105 
     72 CA        -48.7150  -22.7504    7.1299 C.3       3 UNK         0.0299 
     73 CB        -48.6896  -21.3789    6.4370 C.3       3 UNK        -0.1972 
     74 N         -47.9266  -23.7166    6.3537 N.am      3 UNK        -0.4305 
     75 C         -47.8699  -25.0269    6.6259 C.2       2 UNK         0.5006 
     76 O         -48.4641  -25.5553    7.5683 O.2       2 UNK        -0.5106 
     77 CA        -46.9782  -25.8929    5.7320 C.3       2 UNK         0.0296 
     78 CB        -45.5107  -25.8214    6.2003 C.3       2 UNK        -0.2002 
     79 N         -47.4893  -27.2591    5.8086 N.am      2 UNK        -0.4032 
     80 C         -47.1519  -28.2940    5.0340 C.2       1 UNK         0.5000 
     81 O         -46.2729  -28.2410    4.1679 O.2       1 UNK        -0.5238 
     82 H82       -47.2458  -31.2121    1.1680 H         1 UNK         0.0889 
     83 H83       -48.5415  -32.2842    1.7073 H         1 UNK         0.0889 
     84 H84       -46.9657  -32.3356    2.4999 H         1 UNK         0.0889 
     85 H85       -46.9249  -31.2650    4.4619 H         1 UNK         0.3028 
     86 H86       -48.9986  -29.3463    5.1751 H         1 UNK         0.0864 
     87 H87       -46.6865  -30.0677    7.0236 H         1 UNK         0.0720 
     88 H88       -47.8962  -31.2715    6.6950 H         1 UNK         0.0720 
     89 H89       -50.1083  -31.4975    8.1439 H         1 UNK         0.0814 
     90 H90       -50.5247  -30.6507    6.6710 H         1 UNK         0.0814 
     91 H91       -51.4746  -28.1225    7.1681 H         1 UNK         0.1469 
     92 H92       -54.6538  -28.2670   10.0369 H         1 UNK         0.1381 
     93 H93       -51.8691  -31.5184    9.7576 H         1 UNK         0.1206 
     94 H94       -54.1685  -31.7574   10.9142 H         1 UNK         0.0813 
     95 H95       -55.0880  -30.3062   11.2330 H         1 UNK         0.0813 
     96 H96       -54.8592  -31.6343   13.9627 H         1 UNK         0.0638 
     97 H97       -53.9123  -30.5563   14.9540 H         1 UNK         0.0638 
     98 H98       -56.2514  -29.8893   13.1547 H         1 UNK         0.0568 
     99 H99       -57.1530  -28.5896   16.8275 H         1 UNK         0.3450 
    100 H100      -56.0672  -27.6910   15.8016 H         1 UNK         0.3450 
    101 H101      -54.1375  -28.0137   13.8898 H         1 UNK         0.2987 
    102 H102      -54.2163  -26.4968   11.7414 H         1 UNK         0.0766 
    103 H103      -55.3302  -24.3218   11.1302 H         1 UNK         0.0798 
    104 H104      -56.2189  -25.7257   10.5631 H         1 UNK         0.0798 
    105 H105      -56.7886  -24.8437   11.9703 H         1 UNK         0.0798 
    106 H106      -53.3678  -25.4184   13.4161 H         1 UNK         0.3198 
    107 H107      -53.2885  -23.4259   14.8035 H         1 UNK         0.0843 
    108 H108      -55.5027  -23.3937   16.9234 H         1 UNK         0.0831 
    109 H109      -55.2351  -22.1696   15.6930 H         1 UNK         0.0831 
    110 H110      -54.0319  -22.4215   16.9477 H         1 UNK         0.0831 
    111 H111      -52.2804  -24.8867   16.1212 H         1 UNK         0.3133 
    112 H112      -52.4685  -26.2682   18.5839 H         1 UNK         0.0566 
    113 H113      -52.7919  -28.7428   18.7800 H         1 UNK         0.0814 
    114 H114      -54.3165  -27.8866   18.9217 H         1 UNK         0.0814 
    115 H115      -53.9144  -28.7086   17.4210 H         1 UNK         0.0814 
    116 H116      -50.7403  -26.9600   17.3669 H         1 UNK         0.3091 
    117 H117      -49.7036  -28.7051   16.0378 H         1 UNK         0.0702 
    118 H118      -50.7371  -29.9685   14.2073 H         1 UNK         0.0785 
    119 H119      -50.7105  -28.5554   13.1541 H         1 UNK         0.0785 
    120 H120      -49.2026  -29.3084   13.6722 H         1 UNK         0.0785 
    121 H121      -49.2253  -26.7389   13.9697 H         1 UNK         0.2998 
    122 H122      -47.9738  -24.2301   16.2010 H         1 UNK         0.0697 
    123 H123      -46.5654  -25.9994   14.1325 H         1 UNK         0.0825 
    124 H124      -46.0703  -25.8104   15.8099 H         1 UNK         0.0825 
    125 H125      -46.0022  -24.4357   14.7188 H         1 UNK         0.0825 
    126 H126      -48.1497  -24.1983   13.3877 H         1 UNK         0.3029 
    127 H127      -51.4835  -22.8328   13.1711 H         1 UNK         0.0897 
    128 H128      -50.1476  -21.1976   11.8866 H         1 UNK         0.0792 
    129 H129      -48.6500  -21.8422   12.5517 H         1 UNK         0.0792 
    130 H130      -49.8047  -21.0319   13.6019 H         1 UNK         0.0792 
    131 H131      -49.7197  -23.5836   11.0908 H         1 UNK         0.3086 
    132 H132      -50.9984  -26.9302   10.6249 H         1 UNK         0.0583 
    133 H133      -50.9966  -24.3289    9.0002 H         1 UNK         0.1020 
    134 H134      -51.0015  -25.9198    8.3121 H         1 UNK         0.1020 
    135 H135      -54.6772  -26.6958    7.9817 H         1 UNK         0.0694 
    136 H136      -53.1906  -26.4419    7.1039 H         1 UNK         0.0694 
    137 H137      -48.8370  -25.7148    9.3393 H         1 UNK         0.2989 
    138 H138      -46.2195  -26.4994   11.6543 H         1 UNK         0.1055 
    139 H139      -46.5890  -28.4620   10.1445 H         1 UNK         0.0806 
    140 H140      -45.2899  -27.4314    9.5670 H         1 UNK         0.0806 
    141 H141      -46.8728  -27.3784    8.7932 H         1 UNK         0.0806 
    142 H142      -46.3054  -24.9981    9.2015 H         1 UNK         0.3061 
    143 H143      -46.7353  -21.7924   10.6989 H         1 UNK         0.0734 
    144 H144      -44.5980  -21.3879    9.5045 H         1 UNK         0.0832 
    145 H145      -44.3086  -22.3268   10.9587 H         1 UNK         0.0832 
    146 H146      -44.2968  -23.1227    9.3917 H         1 UNK         0.0832 
    147 H147      -46.3149  -22.6352    7.9963 H         1 UNK         0.3156 
    148 H148      -49.7489  -23.1021    7.1416 H         1 UNK         0.0589 
    149 H149      -49.2832  -20.6513    6.9926 H         1 UNK         0.0808 
    150 H150      -47.6773  -20.9806    6.3579 H         1 UNK         0.0808 
    151 H151      -49.1084  -21.4344    5.4320 H         1 UNK         0.0808 
    152 H152      -47.4095  -23.3565    5.5638 H         1 UNK         0.3098 
    153 H153      -47.0601  -25.5422    4.7013 H         1 UNK         0.0720 
    154 H154      -45.1439  -24.7944    6.1938 H         1 UNK         0.0791 
    155 H155      -44.8538  -26.3956    5.5471 H         1 UNK         0.0791 
    156 H156      -45.3883  -26.2066    7.2123 H         1 UNK         0.0791 
    157 H157      -48.2026  -27.3812    6.5199 H         1 UNK         0.3028 
@<TRIPOS>BOND
     1    1    2 1    
     2    1   82 1    
     3    1   83 1    
     4    1   84 1    
     5    2    3 2    
     6    2    4 am   BACKBONE|DICT|INTERRES
     7    4    5 1    
     8    4   85 1    
     9    5    6 1    
    10    5   80 1    
    11    5   86 1    
    12    6    7 1    
    13    6   87 1    
    14    6   88 1    
    15    7    8 1    
    16    8    9 1    
    17    8   89 1    
    18    8   90 1    
    19    9   10 ar   
    20    9   14 ar   
    21   10   11 ar   
    22   10   91 1    
    23   11   12 ar   
    24   11   58 1    
    25   12   13 ar   
    26   12   92 1    
    27   13   14 ar   
    28   13   15 1    
    29   14   93 1    
    30   15   16 1    
    31   15   94 1    
    32   15   95 1    
    33   16   17 1    
    34   17   18 1    
    35   17   96 1    
    36   17   97 1    
    37   18   19 1    
    38   18   22 1    
    39   18   98 1    
    40   19   20 am   BACKBONE|DICT|INTERRES
    41   19   21 2    
    42   20   99 1    
    43   20  100 1    
    44   22   23 am   BACKBONE|DICT|INTERRES
    45   22  101 1    
    46   23   24 2    
    47   23   25 1    
    48   25   26 1    
    49   25   27 1    
    50   25  102 1    
    51   26  103 1    
    52   26  104 1    
    53   26  105 1    
    54   27   28 am   BACKBONE|DICT|INTERRES
    55   27  106 1    
    56   28   29 2    
    57   28   30 1    
    58   30   31 1    
    59   30   32 1    
    60   30  107 1    
    61   31  108 1    
    62   31  109 1    
    63   31  110 1    
    64   32   33 am   BACKBONE|DICT|INTERRES
    65   32  111 1    
    66   33   34 2    
    67   33   35 1    
    68   35   36 1    
    69   35   37 1    
    70   35  112 1    
    71   36  113 1    
    72   36  114 1    
    73   36  115 1    
    74   37   38 am   BACKBONE|DICT|INTERRES
    75   37  116 1    
    76   38   39 2    
    77   38   40 1    
    78   40   41 1    
    79   40   42 1    
    80   40  117 1    
    81   41  118 1    
    82   41  119 1    
    83   41  120 1    
    84   42   43 am   BACKBONE|DICT|INTERRES
    85   42  121 1    
    86   43   44 2    
    87   43   45 1    
    88   45   46 1    
    89   45   47 1    
    90   45  122 1    
    91   46  123 1    
    92   46  124 1    
    93   46  125 1    
    94   47   48 am   BACKBONE|DICT|INTERRES
    95   47  126 1    
    96   48   49 2    
    97   48   50 1    
    98   50   51 1    
    99   50   52 1    
   100   50  127 1    
   101   51  128 1    
   102   51  129 1    
   103   51  130 1    
   104   52   53 am   BACKBONE|DICT|INTERRES
   105   52  131 1    
   106   53   54 2    
   107   53   55 1    
   108   55   56 1    
   109   55   59 1    
   110   55  132 1    
   111   56   57 1    
   112   56  133 1    
   113   56  134 1    
   114   57   58 1    
   115   58  135 1    
   116   58  136 1    
   117   59   60 am   BACKBONE|DICT|INTERRES
   118   59  137 1    
   119   60   61 2    
   120   60   62 1    
   121   62   63 1    
   122   62   64 1    
   123   62  138 1    
   124   63  139 1    
   125   63  140 1    
   126   63  141 1    
   127   64   65 am   BACKBONE|DICT|INTERRES
   128   64  142 1    
   129   65   66 2    
   130   65   67 1    
   131   67   68 1    
   132   67   69 1    
   133   67  143 1    
   134   68  144 1    
   135   68  145 1    
   136   68  146 1    
   137   69   70 am   BACKBONE|DICT|INTERRES
   138   69  147 1    
   139   70   71 2    
   140   70   72 1    
   141   72   73 1    
   142   72   74 1    
   143   72  148 1    
   144   73  149 1    
   145   73  150 1    
   146   73  151 1    
   147   74   75 am   BACKBONE|DICT|INTERRES
   148   74  152 1    
   149   75   76 2    
   150   75   77 1    
   151   77   78 1    
   152   77   79 1    
   153   77  153 1    
   154   78  154 1    
   155   78  155 1    
   156   78  156 1    
   157   79   80 am   BACKBONE|DICT|INTERRES
   158   79  157 1    
   159   80   81 2    
@<TRIPOS>SUBSTRUCTURE
     1 UNK         1 GROUP             0       ****    0 ROOT    
