@<TRIPOS>MOLECULE
3R207
157   159    1
SMALL
USER_CHARGES


@<TRIPOS>ATOM
      1 CA        -45.2060  -29.7308    3.7883 C.3       0 UNK        -0.1975 
      2 C         -45.7477  -30.0446    5.1807 C.2       0 UNK         0.4852 
      3 O         -45.0147  -30.5904    6.0030 O.2       0 UNK        -0.5216 
      4 N         -47.0119  -29.7278    5.4986 N.am      1 UNK        -0.4461 
      5 CA        -48.0095  -29.0590    4.6484 C.3       1 UNK         0.0864 
      6 C6        -49.4422  -29.2159    5.2152 C.3       14 UNK        -0.0898 
      7 S7        -49.9445  -30.9471    5.5037 S.3       14 UNK        -0.2598 
      8 C8        -51.7189  -30.8925    5.0846 C.3       14 UNK         0.0286 
      9 C9        -52.5198  -30.0695    6.0862 C.ar      14 UNK        -0.0844 
     10 C10       -52.6692  -28.6927    5.9036 C.ar      14 UNK        -0.0881 
     11 C11       -53.3784  -27.9208    6.8259 C.ar      14 UNK        -0.0643 
     12 C12       -53.9826  -28.5420    7.9232 C.ar      14 UNK        -0.0930 
     13 C13       -53.8679  -29.9255    8.1026 C.ar      14 UNK        -0.0827 
     14 C14       -53.1264  -30.6812    7.1873 C.ar      14 UNK        -0.1249 
     15 C15       -54.5755  -30.6179    9.2591 C.3       14 UNK         0.0141 
     16 S16       -53.4428  -31.0243   10.6244 S.3       14 UNK        -0.2313 
     17 C17       -53.3142  -29.4215   11.4829 C.3       14 UNK        -0.0915 
     18 CA        -54.3968  -29.2232   12.5784 C.3       13 UNK         0.0968 
     19 C         -54.0368  -29.9573   13.9066 C.2       13 UNK         0.5732 
     20 N         -53.7464  -29.2639   15.0008 N.am      13 UNK        -0.7310 
     21 O         -54.0445  -31.1849   13.9544 O.2       13 UNK        -0.5035 
     22 N         -54.7152  -27.7973   12.7316 N.am      13 UNK        -0.4233 
     23 C         -55.8125  -27.3148   13.3243 C.2       13 UNK         0.4989 
     24 O         -56.7417  -28.0097   13.7414 O.2       13 UNK        -0.4996 
     25 CA        -55.8704  -25.7858   13.4950 C.3       12 UNK         0.0216 
     26 CB        -57.1963  -25.2166   12.9605 C.3       12 UNK        -0.1964 
     27 N         -55.6843  -25.3591   14.8863 N.am      12 UNK        -0.4276 
     28 C         -54.6429  -25.6783   15.6668 C.2       12 UNK         0.5020 
     29 O         -53.7374  -26.4454   15.3373 O.2       12 UNK        -0.5489 
     30 CA        -54.5967  -25.0441   17.0577 C.3       11 UNK         0.0294 
     31 CB        -54.9516  -26.0764   18.1443 C.3       11 UNK        -0.2019 
     32 N         -53.2459  -24.5294   17.2601 N.am      11 UNK        -0.4493 
     33 C         -52.8852  -23.6138   18.1652 C.2       11 UNK         0.4932 
     34 O         -53.6702  -23.0969   18.9630 O.2       11 UNK        -0.5029 
     35 CA        -51.3963  -23.2108   18.1700 C.3       10 UNK         0.0280 
     36 CB        -51.0178  -22.2917   19.3514 C.3       10 UNK        -0.1976 
     37 N         -50.4964  -24.3685   18.0964 N.am      10 UNK        -0.4242 
     38 C         -50.3933  -25.3867   18.9640 C.2       10 UNK         0.5072 
     39 O         -51.0353  -25.4616   20.0135 O.2       10 UNK        -0.5224 
     40 CA        -49.4126  -26.5182   18.5859 C.3       9 UNK         0.0343 
     41 CB        -49.5618  -27.7587   19.4875 C.3       9 UNK        -0.2003 
     42 N         -49.5703  -26.9322   17.1892 N.am      9 UNK        -0.4272 
     43 C         -48.9873  -26.3502   16.1332 C.2       9 UNK         0.4988 
     44 O         -48.1956  -25.4107   16.2327 O.2       9 UNK        -0.5108 
     45 CA        -49.3710  -26.8700   14.7322 C.3       8 UNK         0.0248 
     46 CB        -50.4473  -27.9781   14.7395 C.3       8 UNK        -0.2001 
     47 N         -49.7836  -25.7920   13.8276 N.am      8 UNK        -0.4140 
     48 C         -50.7110  -24.8465   14.0484 C.2       8 UNK         0.5028 
     49 O         -51.2993  -24.6828   15.1177 O.2       8 UNK        -0.5428 
     50 CA        -51.0399  -23.9069   12.8774 C.3       7 UNK         0.0264 
     51 CB        -50.1063  -22.6864   12.8920 C.3       7 UNK        -0.1988 
     52 N         -50.9755  -24.5549   11.5644 N.am      7 UNK        -0.4454 
     53 C         -51.8179  -25.5079   11.1338 C.2       7 UNK         0.5027 
     54 O         -52.7598  -25.9478   11.7938 O.2       7 UNK        -0.5083 
     55 CA        -51.5686  -26.0563    9.7139 C.3       6 UNK         0.0844 
     56 C56       -52.1069  -25.0499    8.6666 C.3       14 UNK        -0.0967 
     57 S57       -51.9045  -25.5865    6.9378 S.3       14 UNK        -0.2604 
     58 C58       -53.4907  -26.4205    6.6068 C.3       14 UNK         0.0134 
     59 N         -50.1589  -26.4147    9.5246 N.am      6 UNK        -0.4116 
     60 C         -49.5270  -27.3820   10.2092 C.2       5 UNK         0.5034 
     61 O         -50.0849  -28.1551   10.9857 O.2       5 UNK        -0.5045 
     62 CA        -48.0027  -27.4772   10.0465 C.3       5 UNK         0.0224 
     63 CB        -47.6254  -28.4066    8.8810 C.3       5 UNK        -0.1978 
     64 N         -47.3925  -26.1572    9.8670 N.am      5 UNK        -0.4737 
     65 C         -47.2301  -25.2696   10.8595 C.2       4 UNK         0.5027 
     66 O         -47.5272  -25.5009   12.0302 O.2       4 UNK        -0.5211 
     67 CA        -46.6764  -23.8822   10.4873 C.3       4 UNK         0.0297 
     68 CB        -45.1408  -23.8864   10.5405 C.3       4 UNK        -0.1993 
     69 N         -47.1175  -23.4209    9.1694 N.am      4 UNK        -0.4486 
     70 C         -48.3885  -23.1443    8.8444 C.2       3 UNK         0.4961 
     71 O         -49.3201  -23.1754    9.6478 O.2       3 UNK        -0.5105 
     72 CA        -48.6769  -22.8478    7.3594 C.3       3 UNK         0.0299 
     73 CB        -48.5661  -21.3410    7.0807 C.3       3 UNK        -0.1972 
     74 N         -47.8130  -23.5888    6.4278 N.am      3 UNK        -0.4305 
     75 C         -47.7183  -24.9253    6.3862 C.2       2 UNK         0.5006 
     76 O         -48.3565  -25.6705    7.1326 O.2       2 UNK        -0.5106 
     77 CA        -46.6830  -25.5212    5.4181 C.3       2 UNK         0.0296 
     78 CB        -45.2563  -25.2739    5.9393 C.3       2 UNK        -0.2002 
     79 N         -46.8875  -26.9649    5.3008 N.am      2 UNK        -0.4032 
     80 C         -47.7198  -27.5553    4.4336 C.2       1 UNK         0.5000 
     81 O         -48.2664  -26.9638    3.5009 O.2       1 UNK        -0.5238 
     82 H82       -44.2292  -30.1939    3.6491 H         1 UNK         0.0889 
     83 H83       -45.0840  -28.6573    3.6494 H         1 UNK         0.0889 
     84 H84       -45.8621  -30.1172    3.0094 H         1 UNK         0.0889 
     85 H85       -47.3526  -30.0005    6.4093 H         1 UNK         0.3028 
     86 H86       -47.9944  -29.5331    3.6656 H         1 UNK         0.0864 
     87 H87       -50.1452  -28.7706    4.5106 H         1 UNK         0.0720 
     88 H88       -49.5603  -28.6685    6.1528 H         1 UNK         0.0720 
     89 H89       -52.1024  -31.9135    5.0552 H         1 UNK         0.0814 
     90 H90       -51.8471  -30.4949    4.0766 H         1 UNK         0.0814 
     91 H91       -52.2225  -28.2069    5.0483 H         1 UNK         0.1469 
     92 H92       -54.5494  -27.9513    8.6297 H         1 UNK         0.1381 
     93 H93       -53.0283  -31.7489    7.3300 H         1 UNK         0.1206 
     94 H94       -55.3987  -30.0071    9.6332 H         1 UNK         0.0813 
     95 H95       -55.0286  -31.5424    8.8981 H         1 UNK         0.0813 
     96 H96       -53.3843  -28.6376   10.7297 H         1 UNK         0.0638 
     97 H97       -52.3128  -29.3261   11.9055 H         1 UNK         0.0638 
     98 H98       -55.3161  -29.6929   12.2236 H         1 UNK         0.0568 
     99 H99       -53.5316  -29.7590   15.8500 H         1 UNK         0.3450 
    100 H100      -53.7447  -28.2449   14.9941 H         1 UNK         0.3450 
    101 H101      -53.9795  -27.1448   12.4655 H         1 UNK         0.2987 
    102 H102      -55.0622  -25.3395   12.9130 H         1 UNK         0.0766 
    103 H103      -57.2008  -24.1267   12.9849 H         1 UNK         0.0798 
    104 H104      -58.0512  -25.5700   13.5387 H         1 UNK         0.0798 
    105 H105      -57.3585  -25.5160   11.9240 H         1 UNK         0.0798 
    106 H106      -56.3975  -24.7517   15.2629 H         1 UNK         0.3198 
    107 H107      -55.3032  -24.2124   17.1001 H         1 UNK         0.0843 
    108 H108      -54.2458  -26.9082   18.1506 H         1 UNK         0.0831 
    109 H109      -55.9462  -26.4920   17.9782 H         1 UNK         0.0831 
    110 H110      -54.9488  -25.6288   19.1381 H         1 UNK         0.0831 
    111 H111      -52.5594  -24.8482   16.5739 H         1 UNK         0.3133 
    112 H112      -51.2342  -22.6457   17.2509 H         1 UNK         0.0566 
    113 H113      -49.9675  -22.0034   19.3094 H         1 UNK         0.0814 
    114 H114      -51.6058  -21.3733   19.3348 H         1 UNK         0.0814 
    115 H115      -51.1959  -22.7729   20.3136 H         1 UNK         0.0814 
    116 H116      -49.9509  -24.4372   17.2448 H         1 UNK         0.3091 
    117 H117      -48.4041  -26.1252   18.7313 H         1 UNK         0.0702 
    118 H118      -48.8433  -28.5332   19.2189 H         1 UNK         0.0785 
    119 H119      -50.5618  -28.1891   19.4191 H         1 UNK         0.0785 
    120 H120      -49.3850  -27.5065   20.5340 H         1 UNK         0.0785 
    121 H121      -50.2468  -27.6610   17.0127 H         1 UNK         0.2998 
    122 H122      -48.4610  -27.2922   14.3039 H         1 UNK         0.0697 
    123 H123      -51.3824  -27.6293   15.1772 H         1 UNK         0.0825 
    124 H124      -50.1183  -28.8567   15.2955 H         1 UNK         0.0825 
    125 H125      -50.6709  -28.3115   13.7258 H         1 UNK         0.0825 
    126 H126      -49.2570  -25.7418   12.9609 H         1 UNK         0.3029 
    127 H127      -52.0641  -23.5564   13.0226 H         1 UNK         0.0897 
    128 H128      -50.3769  -21.9698   12.1162 H         1 UNK         0.0792 
    129 H129      -50.1596  -22.1657   13.8492 H         1 UNK         0.0792 
    130 H130      -49.0664  -22.9745   12.7336 H         1 UNK         0.0792 
    131 H131      -50.2682  -24.2046   10.9216 H         1 UNK         0.3086 
    132 H132      -52.1447  -26.9770    9.6123 H         1 UNK         0.0583 
    133 H133      -53.1619  -24.8386    8.8509 H         1 UNK         0.1020 
    134 H134      -51.6009  -24.0885    8.7635 H         1 UNK         0.1020 
    135 H135      -54.2897  -25.9921    7.2130 H         1 UNK         0.0694 
    136 H136      -53.7695  -26.2342    5.5686 H         1 UNK         0.0694 
    137 H137      -49.6337  -25.8747    8.8466 H         1 UNK         0.2989 
    138 H138      -47.6028  -27.9150   10.9644 H         1 UNK         0.1055 
    139 H139      -47.9989  -29.4160    9.0589 H         1 UNK         0.0806 
    140 H140      -46.5444  -28.4770    8.7602 H         1 UNK         0.0806 
    141 H141      -48.0521  -28.0700    7.9380 H         1 UNK         0.0806 
    142 H142      -47.2253  -25.8640    8.9130 H         1 UNK         0.3061 
    143 H143      -47.0421  -23.1705   11.2305 H         1 UNK         0.0734 
    144 H144      -44.7337  -22.8913   10.3602 H         1 UNK         0.0832 
    145 H145      -44.7870  -24.2056   11.5221 H         1 UNK         0.0832 
    146 H146      -44.7108  -24.5658    9.8034 H         1 UNK         0.0832 
    147 H147      -46.4160  -23.3595    8.4465 H         1 UNK         0.3156 
    148 H148      -49.7060  -23.1555    7.1621 H         1 UNK         0.0589 
    149 H149      -47.5491  -20.9750    7.2272 H         1 UNK         0.0808 
    150 H150      -49.2160  -20.7730    7.7482 H         1 UNK         0.0808 
    151 H151      -48.8668  -21.1023    6.0604 H         1 UNK         0.0808 
    152 H152      -47.2533  -23.0392    5.7911 H         1 UNK         0.3098 
    153 H153      -46.7971  -25.0459    4.4416 H         1 UNK         0.0720 
    154 H154      -45.0328  -24.2079    5.9959 H         1 UNK         0.0791 
    155 H155      -44.5131  -25.7201    5.2779 H         1 UNK         0.0791 
    156 H156      -45.1086  -25.6929    6.9358 H         1 UNK         0.0791 
    157 H157      -46.5239  -27.5285    6.0547 H         1 UNK         0.3028 
@<TRIPOS>BOND
     1    1    2 1    
     2    1   82 1    
     3    1   83 1    
     4    1   84 1    
     5    2    3 2    
     6    2    4 am   BACKBONE|DICT|INTERRES
     7    4    5 1    
     8    4   85 1    
     9    5    6 1    
    10    5   80 1    
    11    5   86 1    
    12    6    7 1    
    13    6   87 1    
    14    6   88 1    
    15    7    8 1    
    16    8    9 1    
    17    8   89 1    
    18    8   90 1    
    19    9   10 ar   
    20    9   14 ar   
    21   10   11 ar   
    22   10   91 1    
    23   11   12 ar   
    24   11   58 1    
    25   12   13 ar   
    26   12   92 1    
    27   13   14 ar   
    28   13   15 1    
    29   14   93 1    
    30   15   16 1    
    31   15   94 1    
    32   15   95 1    
    33   16   17 1    
    34   17   18 1    
    35   17   96 1    
    36   17   97 1    
    37   18   19 1    
    38   18   22 1    
    39   18   98 1    
    40   19   20 am   BACKBONE|DICT|INTERRES
    41   19   21 2    
    42   20   99 1    
    43   20  100 1    
    44   22   23 am   BACKBONE|DICT|INTERRES
    45   22  101 1    
    46   23   24 2    
    47   23   25 1    
    48   25   26 1    
    49   25   27 1    
    50   25  102 1    
    51   26  103 1    
    52   26  104 1    
    53   26  105 1    
    54   27   28 am   BACKBONE|DICT|INTERRES
    55   27  106 1    
    56   28   29 2    
    57   28   30 1    
    58   30   31 1    
    59   30   32 1    
    60   30  107 1    
    61   31  108 1    
    62   31  109 1    
    63   31  110 1    
    64   32   33 am   BACKBONE|DICT|INTERRES
    65   32  111 1    
    66   33   34 2    
    67   33   35 1    
    68   35   36 1    
    69   35   37 1    
    70   35  112 1    
    71   36  113 1    
    72   36  114 1    
    73   36  115 1    
    74   37   38 am   BACKBONE|DICT|INTERRES
    75   37  116 1    
    76   38   39 2    
    77   38   40 1    
    78   40   41 1    
    79   40   42 1    
    80   40  117 1    
    81   41  118 1    
    82   41  119 1    
    83   41  120 1    
    84   42   43 am   BACKBONE|DICT|INTERRES
    85   42  121 1    
    86   43   44 2    
    87   43   45 1    
    88   45   46 1    
    89   45   47 1    
    90   45  122 1    
    91   46  123 1    
    92   46  124 1    
    93   46  125 1    
    94   47   48 am   BACKBONE|DICT|INTERRES
    95   47  126 1    
    96   48   49 2    
    97   48   50 1    
    98   50   51 1    
    99   50   52 1    
   100   50  127 1    
   101   51  128 1    
   102   51  129 1    
   103   51  130 1    
   104   52   53 am   BACKBONE|DICT|INTERRES
   105   52  131 1    
   106   53   54 2    
   107   53   55 1    
   108   55   56 1    
   109   55   59 1    
   110   55  132 1    
   111   56   57 1    
   112   56  133 1    
   113   56  134 1    
   114   57   58 1    
   115   58  135 1    
   116   58  136 1    
   117   59   60 am   BACKBONE|DICT|INTERRES
   118   59  137 1    
   119   60   61 2    
   120   60   62 1    
   121   62   63 1    
   122   62   64 1    
   123   62  138 1    
   124   63  139 1    
   125   63  140 1    
   126   63  141 1    
   127   64   65 am   BACKBONE|DICT|INTERRES
   128   64  142 1    
   129   65   66 2    
   130   65   67 1    
   131   67   68 1    
   132   67   69 1    
   133   67  143 1    
   134   68  144 1    
   135   68  145 1    
   136   68  146 1    
   137   69   70 am   BACKBONE|DICT|INTERRES
   138   69  147 1    
   139   70   71 2    
   140   70   72 1    
   141   72   73 1    
   142   72   74 1    
   143   72  148 1    
   144   73  149 1    
   145   73  150 1    
   146   73  151 1    
   147   74   75 am   BACKBONE|DICT|INTERRES
   148   74  152 1    
   149   75   76 2    
   150   75   77 1    
   151   77   78 1    
   152   77   79 1    
   153   77  153 1    
   154   78  154 1    
   155   78  155 1    
   156   78  156 1    
   157   79   80 am   BACKBONE|DICT|INTERRES
   158   79  157 1    
   159   80   81 2    
@<TRIPOS>SUBSTRUCTURE
     1 UNK         1 GROUP             0       ****    0 ROOT    
