@<TRIPOS>MOLECULE
3R207
157   159    1
SMALL
USER_CHARGES


@<TRIPOS>ATOM
      1 CA        -44.5283  -31.3139    7.4574 C.3       0 UNK        -0.1975 
      2 C         -45.2227  -30.9856    6.1441 C.2       0 UNK         0.4852 
      3 O         -44.5681  -30.9348    5.1021 O.2       0 UNK        -0.5216 
      4 N         -46.5435  -30.7660    6.1880 N.am      1 UNK        -0.4461 
      5 CA        -47.3818  -30.3863    5.0431 C.3       1 UNK         0.0864 
      6 C6        -48.8922  -30.5532    5.3561 C.3       14 UNK        -0.0898 
      7 S7        -49.4094  -29.6708    6.8666 S.3       14 UNK        -0.2598 
      8 C8        -51.2199  -29.7759    6.7718 C.3       14 UNK         0.0286 
      9 C9        -51.8479  -28.7737    7.7271 C.ar      14 UNK        -0.0844 
     10 C10       -52.1658  -27.4901    7.2771 C.ar      14 UNK        -0.0881 
     11 C11       -52.6981  -26.5393    8.1522 C.ar      14 UNK        -0.0643 
     12 C12       -52.9230  -26.8864    9.4878 C.ar      14 UNK        -0.0930 
     13 C13       -52.6074  -28.1670    9.9521 C.ar      14 UNK        -0.0827 
     14 C14       -52.0776  -29.1100    9.0647 C.ar      14 UNK        -0.1249 
     15 C15       -52.7974  -28.5199   11.4202 C.3       14 UNK         0.0141 
     16 S16       -54.5003  -29.0477   11.7845 S.3       14 UNK        -0.2313 
     17 C17       -55.3711  -27.4436   11.9083 C.3       14 UNK        -0.0915 
     18 CA        -56.6776  -27.4928   12.7485 C.3       13 UNK         0.0968 
     19 C         -57.8243  -28.2201   11.9865 C.2       13 UNK         0.5732 
     20 N         -58.4705  -27.5385   11.0497 N.am      13 UNK        -0.7310 
     21 O         -58.1152  -29.3942   12.2115 O.2       13 UNK        -0.5035 
     22 N         -56.4274  -28.0193   14.0982 N.am      13 UNK        -0.4233 
     23 C         -57.3213  -28.0776   15.0920 C.2       13 UNK         0.4989 
     24 O         -58.4393  -27.5622   15.0448 O.2       13 UNK        -0.4996 
     25 CA        -56.9045  -28.8485   16.3499 C.3       12 UNK         0.0216 
     26 CB        -56.7119  -30.3480   16.0485 C.3       12 UNK        -0.1964 
     27 N         -55.6963  -28.2950   16.9673 N.am      12 UNK        -0.4276 
     28 C         -55.4231  -28.3839   18.2795 C.2       12 UNK         0.5020 
     29 O         -56.2000  -28.8838   19.0966 O.2       12 UNK        -0.5489 
     30 CA        -54.0654  -27.8326   18.7752 C.3       11 UNK         0.0294 
     31 CB        -53.6178  -28.4573   20.1143 C.3       11 UNK        -0.2019 
     32 N         -52.9943  -27.9282   17.7777 N.am      11 UNK        -0.4493 
     33 C         -52.5419  -29.0307   17.1589 C.2       11 UNK         0.4932 
     34 O         -52.8639  -30.1760   17.4777 O.2       11 UNK        -0.5029 
     35 CA        -51.5920  -28.8155   15.9570 C.3       10 UNK         0.0280 
     36 CB        -51.8405  -29.8508   14.8403 C.3       10 UNK        -0.1976 
     37 N         -51.6085  -27.4574   15.3870 N.am      10 UNK        -0.4242 
     38 C         -52.6691  -26.7677   14.9370 C.2       10 UNK         0.5072 
     39 O         -53.8193  -27.2041   14.9825 O.2       10 UNK        -0.5224 
     40 CA        -52.4339  -25.3579   14.3617 C.3       9 UNK         0.0343 
     41 CB        -53.3552  -24.3113   15.0197 C.3       9 UNK        -0.2003 
     42 N         -51.0338  -24.9145   14.3624 N.am      9 UNK        -0.4272 
     43 C         -50.2400  -24.6142   15.4008 C.2       9 UNK         0.4988 
     44 O         -50.5889  -24.6833   16.5791 O.2       9 UNK        -0.5108 
     45 CA        -48.7930  -24.2119   15.0636 C.3       8 UNK         0.0248 
     46 CB        -47.9126  -25.4637   14.9172 C.3       8 UNK        -0.2001 
     47 N         -48.6925  -23.4004   13.8467 N.am      8 UNK        -0.4140 
     48 C         -49.1252  -22.1345   13.7464 C.2       8 UNK         0.5028 
     49 O         -49.5848  -21.4892   14.6897 O.2       8 UNK        -0.5428 
     50 CA        -49.0531  -21.4805   12.3554 C.3       7 UNK         0.0264 
     51 CB        -47.6294  -20.9873   12.0506 C.3       7 UNK        -0.1988 
     52 N         -49.5059  -22.3728   11.2863 N.am      7 UNK        -0.4454 
     53 C         -50.7583  -22.8368   11.1559 C.2       7 UNK         0.5027 
     54 O         -51.6920  -22.5135   11.8903 O.2       7 UNK        -0.5083 
     55 CA        -51.0054  -23.8541   10.0265 C.3       6 UNK         0.0844 
     56 C56       -51.3107  -23.1241    8.6947 C.3       14 UNK        -0.0967 
     57 S57       -51.4988  -24.2178    7.2469 S.3       14 UNK        -0.2604 
     58 C58       -53.0189  -25.1427    7.6396 C.3       14 UNK         0.0134 
     59 N         -49.9077  -24.8204    9.9313 N.am      6 UNK        -0.4116 
     60 C         -49.6356  -25.7512   10.8571 C.2       5 UNK         0.5034 
     61 O         -50.3136  -25.9329   11.8656 O.2       5 UNK        -0.5045 
     62 CA        -48.3661  -26.5898   10.6594 C.3       5 UNK         0.0224 
     63 CB        -48.6710  -27.8225    9.8008 C.3       5 UNK        -0.1978 
     64 N         -47.2833  -25.8126   10.0542 N.am      5 UNK        -0.4737 
     65 C         -46.6227  -24.8345   10.6925 C.2       4 UNK         0.5027 
     66 O         -46.8229  -24.5370   11.8702 O.2       4 UNK        -0.5211 
     67 CA        -45.6141  -24.0117    9.8686 C.3       4 UNK         0.0297 
     68 CB        -44.2244  -24.6653    9.9134 C.3       4 UNK        -0.1993 
     69 N         -46.0251  -23.8312    8.4734 N.am      4 UNK        -0.4486 
     70 C         -47.1586  -23.2308    8.0851 C.2       3 UNK         0.4961 
     71 O         -47.9202  -22.6576    8.8643 O.2       3 UNK        -0.5105 
     72 CA        -47.5437  -23.3187    6.5957 C.3       3 UNK         0.0299 
     73 CB        -47.2487  -21.9842    5.8932 C.3       3 UNK        -0.1972 
     74 N         -46.9239  -24.4138    5.8339 N.am      3 UNK        -0.4305 
     75 C         -46.9872  -25.7221    6.1234 C.2       2 UNK         0.5006 
     76 O         -47.4969  -26.1785    7.1495 O.2       2 UNK        -0.5106 
     77 CA        -46.3238  -26.6680    5.1144 C.3       2 UNK         0.0296 
     78 CB        -44.7895  -26.5636    5.1866 C.3       2 UNK        -0.2002 
     79 N         -46.7165  -28.0447    5.4039 N.am      2 UNK        -0.4032 
     80 C         -47.0493  -28.9762    4.5010 C.2       1 UNK         0.5000 
     81 O         -47.0755  -28.7747    3.2848 O.2       1 UNK        -0.5238 
     82 H82       -43.7583  -30.5726    7.6695 H         1 UNK         0.0889 
     83 H83       -44.0524  -32.2923    7.3958 H         1 UNK         0.0889 
     84 H84       -45.2252  -31.3280    8.2952 H         1 UNK         0.0889 
     85 H85       -47.0315  -30.8256    7.0710 H         1 UNK         0.3028 
     86 H86       -47.1452  -31.0826    4.2354 H         1 UNK         0.0864 
     87 H87       -49.1233  -31.6112    5.4893 H         1 UNK         0.0720 
     88 H88       -49.4993  -30.2187    4.5125 H         1 UNK         0.0720 
     89 H89       -51.5505  -29.5784    5.7509 H         1 UNK         0.0814 
     90 H90       -51.5416  -30.7898    7.0143 H         1 UNK         0.0814 
     91 H91       -51.9765  -27.2192    6.2473 H         1 UNK         0.1469 
     92 H92       -53.3329  -26.1592   10.1732 H         1 UNK         0.1381 
     93 H93       -51.8193  -30.0983    9.4196 H         1 UNK         0.1206 
     94 H94       -52.1192  -29.3289   11.6945 H         1 UNK         0.0813 
     95 H95       -52.5204  -27.6746   12.0504 H         1 UNK         0.0813 
     96 H96       -54.6934  -26.7164   12.3564 H         1 UNK         0.0638 
     97 H97       -55.5719  -27.0770   10.9002 H         1 UNK         0.0638 
     98 H98       -57.0082  -26.4622   12.8904 H         1 UNK         0.0568 
     99 H99       -59.2087  -27.9941   10.5365 H         1 UNK         0.3450 
    100 H100      -58.2386  -26.5788   10.8470 H         1 UNK         0.3450 
    101 H101      -55.5064  -28.4117   14.2373 H         1 UNK         0.2987 
    102 H102      -57.7347  -28.7524   17.0535 H         1 UNK         0.0766 
    103 H103      -57.5809  -30.7600   15.5332 H         1 UNK         0.0798 
    104 H104      -56.5783  -30.9214   16.9660 H         1 UNK         0.0798 
    105 H105      -55.8405  -30.5259   15.4171 H         1 UNK         0.0798 
    106 H106      -55.0266  -27.8459   16.3445 H         1 UNK         0.3198 
    107 H107      -54.2243  -26.7670   18.9473 H         1 UNK         0.0843 
    108 H108      -53.5053  -29.5392   20.0379 H         1 UNK         0.0831 
    109 H109      -54.3471  -28.2620   20.9015 H         1 UNK         0.0831 
    110 H110      -52.6663  -28.0434   20.4478 H         1 UNK         0.0831 
    111 H111      -52.6490  -27.0441   17.4303 H         1 UNK         0.3133 
    112 H112      -50.5826  -28.9729   16.3393 H         1 UNK         0.0566 
    113 H113      -52.8538  -29.7790   14.4436 H         1 UNK         0.0814 
    114 H114      -51.7064  -30.8691   15.2071 H         1 UNK         0.0814 
    115 H115      -51.1449  -29.7148   14.0125 H         1 UNK         0.0814 
    116 H116      -50.7127  -26.9944   15.3389 H         1 UNK         0.3091 
    117 H117      -52.7142  -25.4196   13.3094 H         1 UNK         0.0702 
    118 H118      -53.2106  -23.3262   14.5755 H         1 UNK         0.0785 
    119 H119      -53.1774  -24.2268   16.0920 H         1 UNK         0.0785 
    120 H120      -54.4051  -24.5751   14.8854 H         1 UNK         0.0785 
    121 H121      -50.6084  -24.9328   13.4389 H         1 UNK         0.2998 
    122 H122      -48.4093  -23.6209   15.8980 H         1 UNK         0.0697 
    123 H123      -46.8698  -25.1951   14.7464 H         1 UNK         0.0825 
    124 H124      -48.2342  -26.0898   14.0839 H         1 UNK         0.0825 
    125 H125      -47.9454  -26.0747   15.8203 H         1 UNK         0.0825 
    126 H126      -48.2457  -23.8309   13.0413 H         1 UNK         0.3029 
    127 H127      -49.7174  -20.6136   12.3637 H         1 UNK         0.0897 
    128 H128      -47.2954  -20.2738   12.8050 H         1 UNK         0.0792 
    129 H129      -47.5817  -20.4849   11.0841 H         1 UNK         0.0792 
    130 H130      -46.9105  -21.8065   12.0370 H         1 UNK         0.0792 
    131 H131      -48.8207  -22.6330   10.5811 H         1 UNK         0.3086 
    132 H132      -51.8995  -24.4094   10.3080 H         1 UNK         0.0583 
    133 H133      -52.2198  -22.5275    8.7927 H         1 UNK         0.1020 
    134 H134      -50.5179  -22.4127    8.4568 H         1 UNK         0.1020 
    135 H135      -53.6266  -24.5884    8.3563 H         1 UNK         0.0694 
    136 H136      -53.6198  -25.2279    6.7331 H         1 UNK         0.0694 
    137 H137      -49.2984  -24.7344    9.1311 H         1 UNK         0.2989 
    138 H138      -48.0335  -26.9313   11.6422 H         1 UNK         0.1055 
    139 H139      -49.4058  -28.4643   10.2884 H         1 UNK         0.0806 
    140 H140      -47.7788  -28.4227    9.6233 H         1 UNK         0.0806 
    141 H141      -49.0858  -27.5379    8.8333 H         1 UNK         0.0806 
    142 H142      -47.1183  -25.9614    9.0620 H         1 UNK         0.3061 
    143 H143      -45.5437  -23.0221   10.3244 H         1 UNK         0.0734 
    144 H144      -44.2255  -25.6518    9.4478 H         1 UNK         0.0832 
    145 H145      -43.4799  -24.0528    9.4046 H         1 UNK         0.0832 
    146 H146      -43.8878  -24.7919   10.9435 H         1 UNK         0.0832 
    147 H147      -45.4587  -24.2763    7.7668 H         1 UNK         0.3156 
    148 H148      -48.6217  -23.4845    6.5627 H         1 UNK         0.0589 
    149 H149      -47.6323  -21.9776    4.8728 H         1 UNK         0.0808 
    150 H150      -46.1786  -21.7768    5.8536 H         1 UNK         0.0808 
    151 H151      -47.7223  -21.1530    6.4181 H         1 UNK         0.0808 
    152 H152      -46.4593  -24.1430    4.9787 H         1 UNK         0.3098 
    153 H153      -46.6636  -26.3831    4.1164 H         1 UNK         0.0720 
    154 H154      -44.4452  -25.5574    4.9451 H         1 UNK         0.0791 
    155 H155      -44.3157  -27.2432    4.4778 H         1 UNK         0.0791 
    156 H156      -44.4155  -26.8094    6.1815 H         1 UNK         0.0791 
    157 H157      -46.8308  -28.2583    6.3860 H         1 UNK         0.3028 
@<TRIPOS>BOND
     1    1    2 1    
     2    1   82 1    
     3    1   83 1    
     4    1   84 1    
     5    2    3 2    
     6    2    4 am   BACKBONE|DICT|INTERRES
     7    4    5 1    
     8    4   85 1    
     9    5    6 1    
    10    5   80 1    
    11    5   86 1    
    12    6    7 1    
    13    6   87 1    
    14    6   88 1    
    15    7    8 1    
    16    8    9 1    
    17    8   89 1    
    18    8   90 1    
    19    9   10 ar   
    20    9   14 ar   
    21   10   11 ar   
    22   10   91 1    
    23   11   12 ar   
    24   11   58 1    
    25   12   13 ar   
    26   12   92 1    
    27   13   14 ar   
    28   13   15 1    
    29   14   93 1    
    30   15   16 1    
    31   15   94 1    
    32   15   95 1    
    33   16   17 1    
    34   17   18 1    
    35   17   96 1    
    36   17   97 1    
    37   18   19 1    
    38   18   22 1    
    39   18   98 1    
    40   19   20 am   BACKBONE|DICT|INTERRES
    41   19   21 2    
    42   20   99 1    
    43   20  100 1    
    44   22   23 am   BACKBONE|DICT|INTERRES
    45   22  101 1    
    46   23   24 2    
    47   23   25 1    
    48   25   26 1    
    49   25   27 1    
    50   25  102 1    
    51   26  103 1    
    52   26  104 1    
    53   26  105 1    
    54   27   28 am   BACKBONE|DICT|INTERRES
    55   27  106 1    
    56   28   29 2    
    57   28   30 1    
    58   30   31 1    
    59   30   32 1    
    60   30  107 1    
    61   31  108 1    
    62   31  109 1    
    63   31  110 1    
    64   32   33 am   BACKBONE|DICT|INTERRES
    65   32  111 1    
    66   33   34 2    
    67   33   35 1    
    68   35   36 1    
    69   35   37 1    
    70   35  112 1    
    71   36  113 1    
    72   36  114 1    
    73   36  115 1    
    74   37   38 am   BACKBONE|DICT|INTERRES
    75   37  116 1    
    76   38   39 2    
    77   38   40 1    
    78   40   41 1    
    79   40   42 1    
    80   40  117 1    
    81   41  118 1    
    82   41  119 1    
    83   41  120 1    
    84   42   43 am   BACKBONE|DICT|INTERRES
    85   42  121 1    
    86   43   44 2    
    87   43   45 1    
    88   45   46 1    
    89   45   47 1    
    90   45  122 1    
    91   46  123 1    
    92   46  124 1    
    93   46  125 1    
    94   47   48 am   BACKBONE|DICT|INTERRES
    95   47  126 1    
    96   48   49 2    
    97   48   50 1    
    98   50   51 1    
    99   50   52 1    
   100   50  127 1    
   101   51  128 1    
   102   51  129 1    
   103   51  130 1    
   104   52   53 am   BACKBONE|DICT|INTERRES
   105   52  131 1    
   106   53   54 2    
   107   53   55 1    
   108   55   56 1    
   109   55   59 1    
   110   55  132 1    
   111   56   57 1    
   112   56  133 1    
   113   56  134 1    
   114   57   58 1    
   115   58  135 1    
   116   58  136 1    
   117   59   60 am   BACKBONE|DICT|INTERRES
   118   59  137 1    
   119   60   61 2    
   120   60   62 1    
   121   62   63 1    
   122   62   64 1    
   123   62  138 1    
   124   63  139 1    
   125   63  140 1    
   126   63  141 1    
   127   64   65 am   BACKBONE|DICT|INTERRES
   128   64  142 1    
   129   65   66 2    
   130   65   67 1    
   131   67   68 1    
   132   67   69 1    
   133   67  143 1    
   134   68  144 1    
   135   68  145 1    
   136   68  146 1    
   137   69   70 am   BACKBONE|DICT|INTERRES
   138   69  147 1    
   139   70   71 2    
   140   70   72 1    
   141   72   73 1    
   142   72   74 1    
   143   72  148 1    
   144   73  149 1    
   145   73  150 1    
   146   73  151 1    
   147   74   75 am   BACKBONE|DICT|INTERRES
   148   74  152 1    
   149   75   76 2    
   150   75   77 1    
   151   77   78 1    
   152   77   79 1    
   153   77  153 1    
   154   78  154 1    
   155   78  155 1    
   156   78  156 1    
   157   79   80 am   BACKBONE|DICT|INTERRES
   158   79  157 1    
   159   80   81 2    
@<TRIPOS>SUBSTRUCTURE
     1 UNK         1 GROUP             0       ****    0 ROOT    
