@<TRIPOS>MOLECULE
3R207
157   159    1
SMALL
USER_CHARGES


@<TRIPOS>ATOM
      1 CA        -49.6138  -30.2800    7.7126 C.3       0 UNK        -0.1975 
      2 C         -49.5212  -29.3317    6.5281 C.2       0 UNK         0.4852 
      3 O         -48.4587  -28.7577    6.2937 O.2       0 UNK        -0.5216 
      4 N         -50.6154  -29.1693    5.7686 N.am      1 UNK        -0.4461 
      5 CA        -50.6540  -28.3916    4.5213 C.3       1 UNK         0.0864 
      6 C6        -51.9224  -28.7009    3.6741 C.3       14 UNK        -0.0898 
      7 S7        -53.4387  -27.7620    4.0896 S.3       14 UNK        -0.2598 
      8 C8        -54.4272  -28.9755    5.0217 C.3       14 UNK         0.0286 
      9 C9        -53.8419  -29.2877    6.3929 C.ar      14 UNK        -0.0844 
     10 C10       -53.5188  -28.2574    7.2819 C.ar      14 UNK        -0.0881 
     11 C11       -52.9828  -28.5440    8.5401 C.ar      14 UNK        -0.0643 
     12 C12       -52.7983  -29.8775    8.9217 C.ar      14 UNK        -0.0930 
     13 C13       -53.1369  -30.9176    8.0486 C.ar      14 UNK        -0.0827 
     14 C14       -53.6488  -30.6147    6.7839 C.ar      14 UNK        -0.1249 
     15 C15       -52.9348  -32.3730    8.4472 C.3       14 UNK         0.0141 
     16 S16       -54.4546  -33.1015    9.1428 S.3       14 UNK        -0.2313 
     17 C17       -54.2658  -32.7349   10.9183 C.3       14 UNK        -0.0915 
     18 CA        -54.9401  -31.3992   11.3363 C.3       13 UNK         0.0968 
     19 C         -56.4093  -31.5911   11.8028 C.2       13 UNK         0.5732 
     20 N         -57.3300  -31.7997   10.8721 N.am      13 UNK        -0.7310 
     21 O         -56.7177  -31.5862   12.9937 O.2       13 UNK        -0.5035 
     22 N         -54.1075  -30.6998   12.3219 N.am      13 UNK        -0.4233 
     23 C         -54.1436  -29.3850   12.5556 C.2       13 UNK         0.4989 
     24 O         -54.9096  -28.6051   11.9839 O.2       13 UNK        -0.4996 
     25 CA        -53.0914  -28.8595   13.5501 C.3       12 UNK         0.0216 
     26 CB        -51.6627  -29.1460   13.0409 C.3       12 UNK        -0.1964 
     27 N         -53.2392  -27.4191   13.7687 N.am      12 UNK        -0.4276 
     28 C         -54.1023  -26.8628   14.6254 C.2       12 UNK         0.5020 
     29 O         -54.8243  -27.5000   15.3976 O.2       12 UNK        -0.5489 
     30 CA        -54.1810  -25.3314   14.5936 C.3       11 UNK         0.0294 
     31 CB        -55.1364  -24.8638   13.4833 C.3       11 UNK        -0.2019 
     32 N         -54.6755  -24.8466   15.8824 N.am      11 UNK        -0.4493 
     33 C         -54.1319  -23.9425   16.7096 C.2       11 UNK         0.4932 
     34 O         -54.6897  -23.6409   17.7646 O.2       11 UNK        -0.5029 
     35 CA        -52.7783  -23.2793   16.3531 C.3       10 UNK         0.0280 
     36 CB        -52.4345  -22.0928   17.2781 C.3       10 UNK        -0.1976 
     37 N         -51.6593  -24.2307   16.3290 N.am      10 UNK        -0.4242 
     38 C         -51.2806  -25.0829   17.2950 C.2       10 UNK         0.5072 
     39 O         -51.8160  -25.1735   18.4004 O.2       10 UNK        -0.5224 
     40 CA        -50.0888  -25.9988   16.9700 C.3       9 UNK         0.0343 
     41 CB        -50.5366  -27.1744   16.0906 C.3       9 UNK        -0.2003 
     42 N         -48.9861  -25.2920   16.3155 N.am      9 UNK        -0.4272 
     43 C         -48.2100  -24.3805   16.9206 C.2       9 UNK         0.4988 
     44 O         -48.3094  -24.0727   18.1091 O.2       9 UNK        -0.5108 
     45 CA        -47.1381  -23.6944   16.0579 C.3       8 UNK         0.0248 
     46 CB        -45.9006  -24.5952   15.9146 C.3       8 UNK        -0.2001 
     47 N         -47.6303  -23.3180   14.7316 N.am      8 UNK        -0.4140 
     48 C         -48.5743  -22.3946   14.4992 C.2       8 UNK         0.5028 
     49 O         -49.0945  -21.7055   15.3768 O.2       8 UNK        -0.5428 
     50 CA        -49.0358  -22.2249   13.0415 C.3       7 UNK         0.0264 
     51 CB        -48.0828  -21.2991   12.2683 C.3       7 UNK        -0.1988 
     52 N         -49.1712  -23.4989   12.3302 N.am      7 UNK        -0.4454 
     53 C         -50.0521  -24.4586   12.6505 C.2       7 UNK         0.5027 
     54 O         -50.8545  -24.3771   13.5803 O.2       7 UNK        -0.5083 
     55 CA        -50.0034  -25.7470   11.8116 C.3       6 UNK         0.0844 
     56 C56       -50.7578  -25.5480   10.4731 C.3       14 UNK        -0.0967 
     57 S57       -50.8334  -27.0618    9.4571 S.3       14 UNK        -0.2604 
     58 C58       -52.6189  -27.4081    9.4837 C.3       14 UNK         0.0134 
     59 N         -48.6200  -26.1961   11.6386 N.am      6 UNK        -0.4116 
     60 C         -47.8421  -26.6532   12.6321 C.2       5 UNK         0.5034 
     61 O         -48.2241  -26.7868   13.7948 O.2       5 UNK        -0.5045 
     62 CA        -46.3763  -26.9704   12.2855 C.3       5 UNK         0.0224 
     63 CB        -46.2563  -28.3945   11.7202 C.3       5 UNK        -0.1978 
     64 N         -45.7865  -26.0184   11.3399 N.am      5 UNK        -0.4737 
     65 C         -45.6480  -24.7033   11.5628 C.2       4 UNK         0.5027 
     66 O         -45.9240  -24.1632   12.6320 O.2       4 UNK        -0.5211 
     67 CA        -45.1813  -23.8307   10.3818 C.3       4 UNK         0.0297 
     68 CB        -43.6632  -23.6050   10.4534 C.3       4 UNK        -0.1993 
     69 N         -45.5368  -24.3572    9.0567 N.am      4 UNK        -0.4486 
     70 C         -46.7782  -24.6611    8.6514 C.2       3 UNK         0.4961 
     71 O         -47.7738  -24.5366    9.3692 O.2       3 UNK        -0.5105 
     72 CA        -46.9026  -25.2588    7.2374 C.3       3 UNK         0.0299 
     73 CB        -46.1496  -26.5979    7.1427 C.3       3 UNK        -0.1972 
     74 N         -48.2989  -25.4866    6.8628 N.am      3 UNK        -0.4305 
     75 C         -49.1764  -24.5290    6.5307 C.2       2 UNK         0.5006 
     76 O         -48.8693  -23.3435    6.3878 O.2       2 UNK        -0.5106 
     77 CA        -50.6446  -24.9673    6.3485 C.3       2 UNK         0.0296 
     78 CB        -51.4604  -24.0044    5.4591 C.3       2 UNK        -0.2002 
     79 N         -50.7900  -26.3569    5.8978 N.am      2 UNK        -0.4032 
     80 C         -50.4012  -26.8790    4.7226 C.2       1 UNK         0.5000 
     81 O         -49.8544  -26.2362    3.8240 O.2       1 UNK        -0.5238 
     82 H82       -50.3675  -31.0478    7.5473 H         1 UNK         0.0889 
     83 H83       -49.8608  -29.7344    8.6218 H         1 UNK         0.0889 
     84 H84       -48.6595  -30.7824    7.8686 H         1 UNK         0.0889 
     85 H85       -51.4812  -29.6217    6.0338 H         1 UNK         0.3028 
     86 H86       -49.8043  -28.7489    3.9347 H         1 UNK         0.0864 
     87 H87       -52.1387  -29.7703    3.6908 H         1 UNK         0.0720 
     88 H88       -51.7031  -28.4752    2.6291 H         1 UNK         0.0720 
     89 H89       -54.5371  -29.8811    4.4229 H         1 UNK         0.0814 
     90 H90       -55.4326  -28.5753    5.1580 H         1 UNK         0.0814 
     91 H91       -53.6804  -27.2290    6.9877 H         1 UNK         0.1469 
     92 H92       -52.3900  -30.1036    9.8968 H         1 UNK         0.1381 
     93 H93       -53.9091  -31.4186    6.1084 H         1 UNK         0.1206 
     94 H94       -52.6483  -32.9517    7.5678 H         1 UNK         0.0813 
     95 H95       -52.1036  -32.4701    9.1467 H         1 UNK         0.0813 
     96 H96       -53.1978  -32.7208   11.1409 H         1 UNK         0.0638 
     97 H97       -54.6596  -33.5765   11.4916 H         1 UNK         0.0638 
     98 H98       -54.9831  -30.7466   10.4622 H         1 UNK         0.0568 
     99 H99       -57.0766  -31.8378    9.8968 H         1 UNK         0.3450 
    100 H100      -58.2886  -31.9396   11.1498 H         1 UNK         0.3450 
    101 H101      -53.4856  -31.2787   12.8656 H         1 UNK         0.2987 
    102 H102      -53.2327  -29.3801   14.4999 H         1 UNK         0.0766 
    103 H103      -50.9058  -28.7465   13.7143 H         1 UNK         0.0798 
    104 H104      -51.4853  -28.7214   12.0533 H         1 UNK         0.0798 
    105 H105      -51.4738  -30.2172   12.9662 H         1 UNK         0.0798 
    106 H106      -52.7415  -26.8167   13.1318 H         1 UNK         0.3198 
    107 H107      -53.1898  -24.9479   14.3698 H         1 UNK         0.0843 
    108 H108      -56.1480  -25.2426   13.6352 H         1 UNK         0.0831 
    109 H109      -54.8034  -25.2120   12.5044 H         1 UNK         0.0831 
    110 H110      -55.1893  -23.7759   13.4385 H         1 UNK         0.0831 
    111 H111      -55.4969  -25.3397   16.2054 H         1 UNK         0.3133 
    112 H112      -52.8742  -22.8773   15.3436 H         1 UNK         0.0566 
    113 H113      -51.5133  -21.6021   16.9628 H         1 UNK         0.0814 
    114 H114      -53.2249  -21.3415   17.2610 H         1 UNK         0.0814 
    115 H115      -52.3058  -22.4087   18.3139 H         1 UNK         0.0814 
    116 H116      -51.1625  -24.2740   15.4419 H         1 UNK         0.3091 
    117 H117      -49.7166  -26.4061   17.9126 H         1 UNK         0.0702 
    118 H118      -49.7347  -27.9020   15.9647 H         1 UNK         0.0785 
    119 H119      -50.8339  -26.8325   15.0999 H         1 UNK         0.0785 
    120 H120      -51.3871  -27.6982   16.5294 H         1 UNK         0.0785 
    121 H121      -48.7971  -25.5362   15.3491 H         1 UNK         0.2998 
    122 H122      -46.8344  -22.7794   16.5707 H         1 UNK         0.0697 
    123 H123      -46.1320  -25.5171   15.3800 H         1 UNK         0.0825 
    124 H124      -45.5041  -24.8738   16.8919 H         1 UNK         0.0825 
    125 H125      -45.1020  -24.0876   15.3731 H         1 UNK         0.0825 
    126 H126      -47.1856  -23.7701   13.9350 H         1 UNK         0.3029 
    127 H127      -50.0219  -21.7553   13.0638 H         1 UNK         0.0897 
    128 H128      -48.4296  -21.1325   11.2482 H         1 UNK         0.0792 
    129 H129      -48.0147  -20.3230   12.7506 H         1 UNK         0.0792 
    130 H130      -47.0729  -21.7066   12.2182 H         1 UNK         0.0792 
    131 H131      -48.5407  -23.6637   11.5560 H         1 UNK         0.3086 
    132 H132      -50.5263  -26.5178   12.3790 H         1 UNK         0.0583 
    133 H133      -51.7726  -25.1931   10.6638 H         1 UNK         0.1020 
    134 H134      -50.2866  -24.7673    9.8742 H         1 UNK         0.1020 
    135 H135      -52.9261  -27.6516   10.4987 H         1 UNK         0.0694 
    136 H136      -53.1665  -26.5055    9.2079 H         1 UNK         0.0694 
    137 H137      -48.2142  -26.0355   10.7242 H         1 UNK         0.2989 
    138 H138      -45.8025  -26.9168   13.2133 H         1 UNK         0.1055 
    139 H139      -46.6726  -29.1255   12.4151 H         1 UNK         0.0806 
    140 H140      -45.2148  -28.6685   11.5513 H         1 UNK         0.0806 
    141 H141      -46.7908  -28.5027   10.7753 H         1 UNK         0.0806 
    142 H142      -45.5279  -26.3742   10.4315 H         1 UNK         0.3061 
    143 H143      -45.6747  -22.8624   10.4849 H         1 UNK         0.0734 
    144 H144      -43.3283  -22.9006    9.6918 H         1 UNK         0.0832 
    145 H145      -43.3764  -23.1910   11.4214 H         1 UNK         0.0832 
    146 H146      -43.1092  -24.5352   10.3207 H         1 UNK         0.0832 
    147 H147      -44.7735  -24.4919    8.4088 H         1 UNK         0.3156 
    148 H148      -46.4613  -24.5545    6.5293 H         1 UNK         0.0589 
    149 H149      -46.5319  -27.3272    7.8587 H         1 UNK         0.0808 
    150 H150      -46.2442  -27.0325    6.1471 H         1 UNK         0.0808 
    151 H151      -45.0830  -26.4778    7.3341 H         1 UNK         0.0808 
    152 H152      -48.6338  -26.4368    6.9493 H         1 UNK         0.3098 
    153 H153      -51.0867  -24.9300    7.3444 H         1 UNK         0.0720 
    154 H154      -51.0339  -23.9151    4.4597 H         1 UNK         0.0791 
    155 H155      -51.4880  -23.0028    5.8899 H         1 UNK         0.0791 
    156 H156      -52.4924  -24.3397    5.3548 H         1 UNK         0.0791 
    157 H157      -51.2019  -26.9930    6.5668 H         1 UNK         0.3028 
@<TRIPOS>BOND
     1    1    2 1    
     2    1   82 1    
     3    1   83 1    
     4    1   84 1    
     5    2    3 2    
     6    2    4 am   BACKBONE|DICT|INTERRES
     7    4    5 1    
     8    4   85 1    
     9    5    6 1    
    10    5   80 1    
    11    5   86 1    
    12    6    7 1    
    13    6   87 1    
    14    6   88 1    
    15    7    8 1    
    16    8    9 1    
    17    8   89 1    
    18    8   90 1    
    19    9   10 ar   
    20    9   14 ar   
    21   10   11 ar   
    22   10   91 1    
    23   11   12 ar   
    24   11   58 1    
    25   12   13 ar   
    26   12   92 1    
    27   13   14 ar   
    28   13   15 1    
    29   14   93 1    
    30   15   16 1    
    31   15   94 1    
    32   15   95 1    
    33   16   17 1    
    34   17   18 1    
    35   17   96 1    
    36   17   97 1    
    37   18   19 1    
    38   18   22 1    
    39   18   98 1    
    40   19   20 am   BACKBONE|DICT|INTERRES
    41   19   21 2    
    42   20   99 1    
    43   20  100 1    
    44   22   23 am   BACKBONE|DICT|INTERRES
    45   22  101 1    
    46   23   24 2    
    47   23   25 1    
    48   25   26 1    
    49   25   27 1    
    50   25  102 1    
    51   26  103 1    
    52   26  104 1    
    53   26  105 1    
    54   27   28 am   BACKBONE|DICT|INTERRES
    55   27  106 1    
    56   28   29 2    
    57   28   30 1    
    58   30   31 1    
    59   30   32 1    
    60   30  107 1    
    61   31  108 1    
    62   31  109 1    
    63   31  110 1    
    64   32   33 am   BACKBONE|DICT|INTERRES
    65   32  111 1    
    66   33   34 2    
    67   33   35 1    
    68   35   36 1    
    69   35   37 1    
    70   35  112 1    
    71   36  113 1    
    72   36  114 1    
    73   36  115 1    
    74   37   38 am   BACKBONE|DICT|INTERRES
    75   37  116 1    
    76   38   39 2    
    77   38   40 1    
    78   40   41 1    
    79   40   42 1    
    80   40  117 1    
    81   41  118 1    
    82   41  119 1    
    83   41  120 1    
    84   42   43 am   BACKBONE|DICT|INTERRES
    85   42  121 1    
    86   43   44 2    
    87   43   45 1    
    88   45   46 1    
    89   45   47 1    
    90   45  122 1    
    91   46  123 1    
    92   46  124 1    
    93   46  125 1    
    94   47   48 am   BACKBONE|DICT|INTERRES
    95   47  126 1    
    96   48   49 2    
    97   48   50 1    
    98   50   51 1    
    99   50   52 1    
   100   50  127 1    
   101   51  128 1    
   102   51  129 1    
   103   51  130 1    
   104   52   53 am   BACKBONE|DICT|INTERRES
   105   52  131 1    
   106   53   54 2    
   107   53   55 1    
   108   55   56 1    
   109   55   59 1    
   110   55  132 1    
   111   56   57 1    
   112   56  133 1    
   113   56  134 1    
   114   57   58 1    
   115   58  135 1    
   116   58  136 1    
   117   59   60 am   BACKBONE|DICT|INTERRES
   118   59  137 1    
   119   60   61 2    
   120   60   62 1    
   121   62   63 1    
   122   62   64 1    
   123   62  138 1    
   124   63  139 1    
   125   63  140 1    
   126   63  141 1    
   127   64   65 am   BACKBONE|DICT|INTERRES
   128   64  142 1    
   129   65   66 2    
   130   65   67 1    
   131   67   68 1    
   132   67   69 1    
   133   67  143 1    
   134   68  144 1    
   135   68  145 1    
   136   68  146 1    
   137   69   70 am   BACKBONE|DICT|INTERRES
   138   69  147 1    
   139   70   71 2    
   140   70   72 1    
   141   72   73 1    
   142   72   74 1    
   143   72  148 1    
   144   73  149 1    
   145   73  150 1    
   146   73  151 1    
   147   74   75 am   BACKBONE|DICT|INTERRES
   148   74  152 1    
   149   75   76 2    
   150   75   77 1    
   151   77   78 1    
   152   77   79 1    
   153   77  153 1    
   154   78  154 1    
   155   78  155 1    
   156   78  156 1    
   157   79   80 am   BACKBONE|DICT|INTERRES
   158   79  157 1    
   159   80   81 2    
@<TRIPOS>SUBSTRUCTURE
     1 UNK         1 GROUP             0       ****    0 ROOT    
