@<TRIPOS>MOLECULE
3R207
157   159    1
SMALL
USER_CHARGES


@<TRIPOS>ATOM
      1 CA        -49.5832  -30.7490    9.5627 C.3       0 UNK        -0.1975 
      2 C         -49.1166  -30.6096    8.1221 C.2       0 UNK         0.4852 
      3 O         -48.0559  -31.1288    7.7738 O.2       0 UNK        -0.5216 
      4 N         -49.8976  -29.9155    7.2824 N.am      1 UNK        -0.4461 
      5 CA        -49.6185  -29.7276    5.8509 C.3       1 UNK         0.0864 
      6 C6        -50.8794  -29.2979    5.0603 C.3       14 UNK        -0.0898 
      7 S7        -52.1946  -30.5645    5.1161 S.3       14 UNK        -0.2598 
      8 C8        -53.5776  -29.6733    5.8977 C.3       14 UNK         0.0286 
      9 C9        -53.3335  -29.4283    7.3789 C.ar      14 UNK        -0.0844 
     10 C10       -52.8701  -28.1874    7.8195 C.ar      14 UNK        -0.0881 
     11 C11       -52.6311  -27.9604    9.1763 C.ar      14 UNK        -0.0643 
     12 C12       -52.8738  -28.9805   10.1012 C.ar      14 UNK        -0.0930 
     13 C13       -53.3657  -30.2201    9.6763 C.ar      14 UNK        -0.0827 
     14 C14       -53.5846  -30.4381    8.3120 C.ar      14 UNK        -0.1249 
     15 C15       -53.6472  -31.3400   10.6742 C.3       14 UNK         0.0141 
     16 S16       -54.7259  -30.8490   12.0637 S.3       14 UNK        -0.2313 
     17 C17       -56.1668  -30.0995   11.2256 C.3       14 UNK        -0.0915 
     18 CA        -56.1986  -28.5549   11.4170 C.3       13 UNK         0.0968 
     19 C         -57.2342  -27.8265   10.5070 C.2       13 UNK         0.5732 
     20 N         -57.6774  -26.6252   10.8606 N.am      13 UNK        -0.7310 
     21 O         -57.6245  -28.3331    9.4575 O.2       13 UNK        -0.5035 
     22 N         -56.2327  -28.1638   12.8373 N.am      13 UNK        -0.4233 
     23 C         -57.2786  -28.2655   13.6719 C.2       13 UNK         0.4989 
     24 O         -58.3775  -28.7120   13.3392 O.2       13 UNK        -0.4996 
     25 CA        -57.0872  -27.8025   15.1329 C.3       12 UNK         0.0216 
     26 CB        -57.1637  -29.0036   16.0911 C.3       12 UNK        -0.1964 
     27 N         -55.8331  -27.0858   15.3795 N.am      12 UNK        -0.4276 
     28 C         -55.5222  -25.8670   14.9172 C.2       12 UNK         0.5020 
     29 O         -56.3129  -25.1478   14.3054 O.2       12 UNK        -0.5489 
     30 CA        -54.0734  -25.3853   15.1371 C.3       11 UNK         0.0294 
     31 CB        -54.0091  -24.3847   16.3019 C.3       11 UNK        -0.2019 
     32 N         -53.0926  -26.4555   15.3705 N.am      11 UNK        -0.4493 
     33 C         -52.8187  -27.4615   14.5265 C.2       11 UNK         0.4932 
     34 O         -53.4187  -27.6465   13.4665 O.2       11 UNK        -0.5029 
     35 CA        -51.6768  -28.3956   14.9472 C.3       10 UNK         0.0280 
     36 CB        -51.3920  -29.5094   13.9199 C.3       10 UNK        -0.1976 
     37 N         -50.4666  -27.6065   15.1751 N.am      10 UNK        -0.4242 
     38 C         -49.5011  -27.9213   16.0468 C.2       10 UNK         0.5072 
     39 O         -49.5578  -28.8967   16.7976 O.2       10 UNK        -0.5224 
     40 CA        -48.2437  -27.0335   16.0934 C.3       9 UNK         0.0343 
     41 CB        -47.1096  -27.6653   15.2691 C.3       9 UNK        -0.2003 
     42 N         -48.4348  -25.6451   15.6629 N.am      9 UNK        -0.4272 
     43 C         -49.0732  -24.7122   16.3859 C.2       9 UNK         0.4988 
     44 O         -49.7043  -24.9566   17.4144 O.2       9 UNK        -0.5108 
     45 CA        -48.9637  -23.2585   15.9001 C.3       8 UNK         0.0248 
     46 CB        -47.5478  -22.7086   16.1437 C.3       8 UNK        -0.2001 
     47 N         -49.2859  -23.1594   14.4794 N.am      8 UNK        -0.4140 
     48 C         -50.4753  -22.7777   13.9931 C.2       8 UNK         0.5028 
     49 O         -51.3897  -22.3270   14.6840 O.2       8 UNK        -0.5428 
     50 CA        -50.7007  -22.9480   12.4768 C.3       7 UNK         0.0264 
     51 CB        -50.4597  -21.6188   11.7453 C.3       7 UNK        -0.1988 
     52 N         -49.8848  -24.0067   11.8664 N.am      7 UNK        -0.4454 
     53 C         -49.9391  -25.2961   12.2395 C.2       7 UNK         0.5027 
     54 O         -50.7104  -25.7135   13.0981 O.2       7 UNK        -0.5083 
     55 CA        -48.9257  -26.2867   11.6367 C.3       6 UNK         0.0844 
     56 C56       -49.5391  -27.2312   10.5743 C.3       14 UNK        -0.0967 
     57 S57       -50.3654  -26.3939    9.1837 S.3       14 UNK        -0.2604 
     58 C58       -52.1175  -26.6041    9.6258 C.3       14 UNK         0.0134 
     59 N         -47.6716  -25.6625   11.2117 N.am      6 UNK        -0.4116 
     60 C         -46.7937  -25.0981   12.0553 C.2       5 UNK         0.5034 
     61 O         -47.0192  -24.9169   13.2544 O.2       5 UNK        -0.5045 
     62 CA        -45.4438  -24.6706   11.4703 C.3       5 UNK         0.0224 
     63 CB        -44.5871  -25.9024   11.1320 C.3       5 UNK        -0.1978 
     64 N         -45.6318  -23.8639   10.2667 N.am      5 UNK        -0.4737 
     65 C         -45.4995  -22.5325   10.2166 C.2       4 UNK         0.5027 
     66 O         -45.1482  -21.8424   11.1740 O.2       4 UNK        -0.5211 
     67 CA        -45.8032  -21.8410    8.8738 C.3       4 UNK         0.0297 
     68 CB        -44.4987  -21.5638    8.1090 C.3       4 UNK        -0.1993 
     69 N         -46.7200  -22.5843    8.0044 N.am      4 UNK        -0.4486 
     70 C         -47.9977  -22.8608    8.2974 C.2       3 UNK         0.4961 
     71 O         -48.5480  -22.5437    9.3512 O.2       3 UNK        -0.5105 
     72 CA        -48.7859  -23.6620    7.2492 C.3       3 UNK         0.0299 
     73 CB        -49.2878  -22.7314    6.1332 C.3       3 UNK        -0.1972 
     74 N         -48.0808  -24.8063    6.6514 N.am      3 UNK        -0.4305 
     75 C         -47.3630  -25.7417    7.2919 C.2       2 UNK         0.5006 
     76 O         -47.0662  -25.7031    8.4875 O.2       2 UNK        -0.5106 
     77 CA        -46.9722  -26.9677    6.4664 C.3       2 UNK         0.0296 
     78 CB        -45.6807  -27.6353    6.9786 C.3       2 UNK        -0.2002 
     79 N         -48.0816  -27.9148    6.5412 N.am      2 UNK        -0.4032 
     80 C         -48.4387  -28.7673    5.5718 C.2       1 UNK         0.5000 
     81 O         -47.8702  -28.8253    4.4793 O.2       1 UNK        -0.5238 
     82 H82       -50.4027  -30.0707    9.7871 H         1 UNK         0.0889 
     83 H83       -48.7658  -30.5296   10.2489 H         1 UNK         0.0889 
     84 H84       -49.9230  -31.7671    9.7499 H         1 UNK         0.0889 
     85 H85       -50.7814  -29.5460    7.6090 H         1 UNK         0.3028 
     86 H86       -49.3062  -30.6974    5.4564 H         1 UNK         0.0864 
     87 H87       -51.2557  -28.3404    5.4219 H         1 UNK         0.0720 
     88 H88       -50.6346  -29.1438    4.0074 H         1 UNK         0.0720 
     89 H89       -54.4879  -30.2620    5.7746 H         1 UNK         0.0814 
     90 H90       -53.7533  -28.7340    5.3708 H         1 UNK         0.0814 
     91 H91       -52.6861  -27.3941    7.1078 H         1 UNK         0.1469 
     92 H92       -52.7000  -28.8062   11.1542 H         1 UNK         0.1381 
     93 H93       -53.9509  -31.3967    7.9703 H         1 UNK         0.1206 
     94 H94       -54.1053  -32.1945   10.1738 H         1 UNK         0.0813 
     95 H95       -52.6983  -31.6951   11.0781 H         1 UNK         0.0813 
     96 H96       -56.1334  -30.3636   10.1675 H         1 UNK         0.0638 
     97 H97       -57.0763  -30.5526   11.6223 H         1 UNK         0.0638 
     98 H98       -55.2469  -28.1710   11.0551 H         1 UNK         0.0568 
     99 H99       -58.3409  -26.1501   10.2698 H         1 UNK         0.3450 
    100 H100      -57.3619  -26.1960   11.7168 H         1 UNK         0.3450 
    101 H101      -55.3467  -27.8249   13.1992 H         1 UNK         0.2987 
    102 H102      -57.9119  -27.1252   15.3646 H         1 UNK         0.0766 
    103 H103      -57.1004  -28.6874   17.1326 H         1 UNK         0.0798 
    104 H104      -56.3613  -29.7190   15.9055 H         1 UNK         0.0798 
    105 H105      -58.1079  -29.5377   15.9754 H         1 UNK         0.0798 
    106 H106      -55.1108  -27.5948   15.8674 H         1 UNK         0.3198 
    107 H107      -53.7681  -24.8670   14.2253 H         1 UNK         0.0843 
    108 H108      -54.6987  -23.5546   16.1416 H         1 UNK         0.0831 
    109 H109      -53.0112  -23.9563   16.4021 H         1 UNK         0.0831 
    110 H110      -54.2741  -24.8510   17.2515 H         1 UNK         0.0831 
    111 H111      -52.5343  -26.3777   16.2092 H         1 UNK         0.3133 
    112 H112      -51.9904  -28.8640   15.8824 H         1 UNK         0.0566 
    113 H113      -50.6191  -30.1907   14.2752 H         1 UNK         0.0814 
    114 H114      -52.2852  -30.1057   13.7315 H         1 UNK         0.0814 
    115 H115      -51.0635  -29.0991   12.9657 H         1 UNK         0.0814 
    116 H116      -50.3797  -26.7776   14.5889 H         1 UNK         0.3091 
    117 H117      -47.9158  -27.0083   17.1351 H         1 UNK         0.0702 
    118 H118      -46.1868  -27.0915   15.3578 H         1 UNK         0.0785 
    119 H119      -47.3619  -27.7300   14.2114 H         1 UNK         0.0785 
    120 H120      -46.8942  -28.6778   15.6135 H         1 UNK         0.0785 
    121 H121      -47.9261  -25.3595   14.8300 H         1 UNK         0.2998 
    122 H122      -49.6599  -22.6565   16.4882 H         1 UNK         0.0697 
    123 H123      -46.7930  -23.2510   15.5727 H         1 UNK         0.0825 
    124 H124      -47.2763  -22.7832   17.1977 H         1 UNK         0.0825 
    125 H125      -47.4814  -21.6564   15.8667 H         1 UNK         0.0825 
    126 H126      -48.6004  -23.5312   13.8335 H         1 UNK         0.3029 
    127 H127      -51.7481  -23.2262   12.3413 H         1 UNK         0.0897 
    128 H128      -50.7496  -21.6870   10.6967 H         1 UNK         0.0792 
    129 H129      -51.0472  -20.8138   12.1892 H         1 UNK         0.0792 
    130 H130      -49.4112  -21.3206   11.7858 H         1 UNK         0.0792 
    131 H131      -49.2455  -23.7282   11.1300 H         1 UNK         0.3086 
    132 H132      -48.6485  -26.9394   12.4660 H         1 UNK         0.0583 
    133 H133      -48.7596  -27.8758   10.1662 H         1 UNK         0.1020 
    134 H134      -50.2489  -27.9056   11.0539 H         1 UNK         0.1020 
    135 H135      -52.2595  -26.4657   10.6991 H         1 UNK         0.0694 
    136 H136      -52.6986  -25.8199    9.1387 H         1 UNK         0.0694 
    137 H137      -47.4424  -25.7307   10.2210 H         1 UNK         0.2989 
    138 H138      -44.9194  -24.0979   12.2388 H         1 UNK         0.1055 
    139 H139      -44.4495  -26.5359   12.0095 H         1 UNK         0.0806 
    140 H140      -43.5957  -25.6084   10.7872 H         1 UNK         0.0806 
    141 H141      -45.0410  -26.5162   10.3526 H         1 UNK         0.0806 
    142 H142      -45.9814  -24.3491    9.4458 H         1 UNK         0.3061 
    143 H143      -46.2742  -20.8831    9.1048 H         1 UNK         0.0734 
    144 H144      -43.8046  -20.9841    8.7193 H         1 UNK         0.0832 
    145 H145      -43.9912  -22.4877    7.8286 H         1 UNK         0.0832 
    146 H146      -44.6832  -20.9902    7.2005 H         1 UNK         0.0832 
    147 H147      -46.3531  -22.9085    7.1213 H         1 UNK         0.3156 
    148 H148      -49.6652  -24.0599    7.7548 H         1 UNK         0.0589 
    149 H149      -48.4665  -22.3397    5.5318 H         1 UNK         0.0808 
    150 H150      -49.9774  -23.2476    5.4652 H         1 UNK         0.0808 
    151 H151      -49.8243  -21.8767    6.5483 H         1 UNK         0.0808 
    152 H152      -48.2629  -24.9582    5.6697 H         1 UNK         0.3098 
    153 H153      -46.8140  -26.6482    5.4340 H         1 UNK         0.0720 
    154 H154      -45.3871  -28.4681    6.3395 H         1 UNK         0.0791 
    155 H155      -45.7982  -28.0203    7.9925 H         1 UNK         0.0791 
    156 H156      -44.8523  -26.9260    6.9910 H         1 UNK         0.0791 
    157 H157      -48.6201  -27.8976    7.3969 H         1 UNK         0.3028 
@<TRIPOS>BOND
     1    1    2 1    
     2    1   82 1    
     3    1   83 1    
     4    1   84 1    
     5    2    3 2    
     6    2    4 am   BACKBONE|DICT|INTERRES
     7    4    5 1    
     8    4   85 1    
     9    5    6 1    
    10    5   80 1    
    11    5   86 1    
    12    6    7 1    
    13    6   87 1    
    14    6   88 1    
    15    7    8 1    
    16    8    9 1    
    17    8   89 1    
    18    8   90 1    
    19    9   10 ar   
    20    9   14 ar   
    21   10   11 ar   
    22   10   91 1    
    23   11   12 ar   
    24   11   58 1    
    25   12   13 ar   
    26   12   92 1    
    27   13   14 ar   
    28   13   15 1    
    29   14   93 1    
    30   15   16 1    
    31   15   94 1    
    32   15   95 1    
    33   16   17 1    
    34   17   18 1    
    35   17   96 1    
    36   17   97 1    
    37   18   19 1    
    38   18   22 1    
    39   18   98 1    
    40   19   20 am   BACKBONE|DICT|INTERRES
    41   19   21 2    
    42   20   99 1    
    43   20  100 1    
    44   22   23 am   BACKBONE|DICT|INTERRES
    45   22  101 1    
    46   23   24 2    
    47   23   25 1    
    48   25   26 1    
    49   25   27 1    
    50   25  102 1    
    51   26  103 1    
    52   26  104 1    
    53   26  105 1    
    54   27   28 am   BACKBONE|DICT|INTERRES
    55   27  106 1    
    56   28   29 2    
    57   28   30 1    
    58   30   31 1    
    59   30   32 1    
    60   30  107 1    
    61   31  108 1    
    62   31  109 1    
    63   31  110 1    
    64   32   33 am   BACKBONE|DICT|INTERRES
    65   32  111 1    
    66   33   34 2    
    67   33   35 1    
    68   35   36 1    
    69   35   37 1    
    70   35  112 1    
    71   36  113 1    
    72   36  114 1    
    73   36  115 1    
    74   37   38 am   BACKBONE|DICT|INTERRES
    75   37  116 1    
    76   38   39 2    
    77   38   40 1    
    78   40   41 1    
    79   40   42 1    
    80   40  117 1    
    81   41  118 1    
    82   41  119 1    
    83   41  120 1    
    84   42   43 am   BACKBONE|DICT|INTERRES
    85   42  121 1    
    86   43   44 2    
    87   43   45 1    
    88   45   46 1    
    89   45   47 1    
    90   45  122 1    
    91   46  123 1    
    92   46  124 1    
    93   46  125 1    
    94   47   48 am   BACKBONE|DICT|INTERRES
    95   47  126 1    
    96   48   49 2    
    97   48   50 1    
    98   50   51 1    
    99   50   52 1    
   100   50  127 1    
   101   51  128 1    
   102   51  129 1    
   103   51  130 1    
   104   52   53 am   BACKBONE|DICT|INTERRES
   105   52  131 1    
   106   53   54 2    
   107   53   55 1    
   108   55   56 1    
   109   55   59 1    
   110   55  132 1    
   111   56   57 1    
   112   56  133 1    
   113   56  134 1    
   114   57   58 1    
   115   58  135 1    
   116   58  136 1    
   117   59   60 am   BACKBONE|DICT|INTERRES
   118   59  137 1    
   119   60   61 2    
   120   60   62 1    
   121   62   63 1    
   122   62   64 1    
   123   62  138 1    
   124   63  139 1    
   125   63  140 1    
   126   63  141 1    
   127   64   65 am   BACKBONE|DICT|INTERRES
   128   64  142 1    
   129   65   66 2    
   130   65   67 1    
   131   67   68 1    
   132   67   69 1    
   133   67  143 1    
   134   68  144 1    
   135   68  145 1    
   136   68  146 1    
   137   69   70 am   BACKBONE|DICT|INTERRES
   138   69  147 1    
   139   70   71 2    
   140   70   72 1    
   141   72   73 1    
   142   72   74 1    
   143   72  148 1    
   144   73  149 1    
   145   73  150 1    
   146   73  151 1    
   147   74   75 am   BACKBONE|DICT|INTERRES
   148   74  152 1    
   149   75   76 2    
   150   75   77 1    
   151   77   78 1    
   152   77   79 1    
   153   77  153 1    
   154   78  154 1    
   155   78  155 1    
   156   78  156 1    
   157   79   80 am   BACKBONE|DICT|INTERRES
   158   79  157 1    
   159   80   81 2    
@<TRIPOS>SUBSTRUCTURE
     1 UNK         1 GROUP             0       ****    0 ROOT    
