@<TRIPOS>MOLECULE
3R207
157   159    1
SMALL
USER_CHARGES


@<TRIPOS>ATOM
      1 CA        -46.4599  -27.7016   11.0244 C.3       0 UNK        -0.1975 
      2 C         -46.8468  -27.9096    9.5702 C.2       0 UNK         0.4852 
      3 O         -46.1440  -28.6144    8.8442 O.2       0 UNK        -0.5216 
      4 N         -47.9614  -27.3066    9.1353 N.am      1 UNK        -0.4461 
      5 CA        -48.4690  -27.4142    7.7658 C.3       1 UNK         0.0864 
      6 C6        -49.9148  -26.8845    7.6542 C.3       14 UNK        -0.0898 
      7 S7        -50.7635  -27.5277    6.1703 S.3       14 UNK        -0.2598 
      8 C8        -51.8976  -28.7696    6.8829 C.3       14 UNK         0.0286 
      9 C9        -52.8409  -28.1884    7.9307 C.ar      14 UNK        -0.0844 
     10 C10       -53.5085  -26.9821    7.7004 C.ar      14 UNK        -0.0881 
     11 C11       -54.3182  -26.4163    8.6866 C.ar      14 UNK        -0.0643 
     12 C12       -54.5038  -27.0911    9.8971 C.ar      14 UNK        -0.0930 
     13 C13       -53.8597  -28.3096   10.1319 C.ar      14 UNK        -0.0827 
     14 C14       -53.0252  -28.8491    9.1484 C.ar      14 UNK        -0.1249 
     15 C15       -54.0399  -29.0400   11.4522 C.3       14 UNK         0.0141 
     16 S16       -55.3390  -30.3039   11.3360 S.3       14 UNK        -0.2313 
     17 C17       -55.0713  -31.2211   12.8910 C.3       14 UNK        -0.0915 
     18 CA        -56.2979  -31.1610   13.8365 C.3       13 UNK         0.0968 
     19 C         -56.1416  -32.1497   15.0291 C.2       13 UNK         0.5732 
     20 N         -56.1510  -31.7001   16.2790 N.am      13 UNK        -0.7310 
     21 O         -56.0232  -33.3541   14.8160 O.2       13 UNK        -0.5035 
     22 N         -56.6060  -29.7795   14.2393 N.am      13 UNK        -0.4233 
     23 C         -57.8289  -29.3329   14.5514 C.2       13 UNK         0.4989 
     24 O         -58.8438  -30.0288   14.4945 O.2       13 UNK        -0.4996 
     25 CA        -57.9567  -27.8750   15.0300 C.3       12 UNK         0.0216 
     26 CB        -58.3744  -27.8285   16.5099 C.3       12 UNK        -0.1964 
     27 N         -56.7329  -27.0869   14.8673 N.am      12 UNK        -0.4276 
     28 C         -56.3017  -26.5309   13.7320 C.2       12 UNK         0.5020 
     29 O         -56.8875  -26.6434   12.6559 O.2       12 UNK        -0.5489 
     30 CA        -55.0072  -25.6972   13.7984 C.3       11 UNK         0.0294 
     31 CB        -55.3043  -24.2742   14.3072 C.3       11 UNK        -0.2019 
     32 N         -53.8756  -26.2944   14.5290 N.am      11 UNK        -0.4493 
     33 C         -53.7806  -26.6553   15.8181 C.2       11 UNK         0.4932 
     34 O         -54.7147  -26.5704   16.6166 O.2       11 UNK        -0.5029 
     35 CA        -52.4236  -27.1709   16.3345 C.3       10 UNK         0.0280 
     36 CB        -52.5787  -28.4471   17.1898 C.3       10 UNK        -0.1976 
     37 N         -51.3782  -27.3244   15.3132 N.am      10 UNK        -0.4242 
     38 C         -51.2656  -28.2657   14.3606 C.2       10 UNK         0.5072 
     39 O         -52.0976  -29.1557   14.1859 O.2       10 UNK        -0.5224 
     40 CA        -50.0212  -28.2061   13.4451 C.3       9 UNK         0.0343 
     41 CB        -50.3661  -28.5201   11.9776 C.3       9 UNK        -0.2003 
     42 N         -49.3672  -26.8978   13.5014 N.am      9 UNK        -0.4272 
     43 C         -48.2967  -26.5875   14.2464 C.2       9 UNK         0.4988 
     44 O         -47.6526  -27.4103   14.8964 O.2       9 UNK        -0.5108 
     45 CA        -47.8942  -25.1005   14.3111 C.3       8 UNK         0.0248 
     46 CB        -46.7036  -24.8028   13.3884 C.3       8 UNK        -0.2001 
     47 N         -48.9940  -24.1892   13.9833 N.am      8 UNK        -0.4140 
     48 C         -50.0760  -24.0029   14.7510 C.2       8 UNK         0.5028 
     49 O         -50.2374  -24.5416   15.8458 O.2       8 UNK        -0.5428 
     50 CA        -51.1944  -23.1246   14.1693 C.3       7 UNK         0.0264 
     51 CB        -50.9574  -21.6464   14.5151 C.3       7 UNK        -0.1988 
     52 N         -51.3653  -23.2676   12.7181 N.am      7 UNK        -0.4454 
     53 C         -51.7096  -24.4045   12.0921 C.2       7 UNK         0.5027 
     54 O         -51.8665  -25.4800   12.6676 O.2       7 UNK        -0.5083 
     55 CA        -51.8968  -24.3289   10.5651 C.3       6 UNK         0.0844 
     56 C56       -53.2832  -23.7037   10.2592 C.3       14 UNK        -0.0967 
     57 S57       -53.7164  -23.7263    8.4891 S.3       14 UNK        -0.2604 
     58 C58       -54.9594  -25.0603    8.4402 C.3       14 UNK         0.0134 
     59 N         -50.7966  -23.6127    9.9058 N.am      6 UNK        -0.4116 
     60 C         -49.4928  -23.9197    9.9888 C.2       5 UNK         0.5034 
     61 O         -49.0460  -24.9012   10.5942 O.2       5 UNK        -0.5045 
     62 CA        -48.5258  -22.9380    9.3105 C.3       5 UNK         0.0224 
     63 CB        -48.6439  -21.5251    9.9218 C.3       5 UNK        -0.1978 
     64 N         -47.1555  -23.4231    9.4601 N.am      5 UNK        -0.4737 
     65 C         -46.1079  -23.0560    8.7125 C.2       4 UNK         0.5027 
     66 O         -46.1773  -22.2555    7.7791 O.2       4 UNK        -0.5211 
     67 CA        -44.7478  -23.6705    9.0680 C.3       4 UNK         0.0297 
     68 CB        -44.5997  -24.0300   10.5628 C.3       4 UNK        -0.1993 
     69 N         -44.4999  -24.8428    8.2299 N.am      4 UNK        -0.4486 
     70 C         -43.2814  -25.3500    7.9880 C.2       3 UNK         0.4961 
     71 O         -42.2431  -24.8416    8.4139 O.2       3 UNK        -0.5105 
     72 CA        -43.1679  -26.6474    7.1637 C.3       3 UNK         0.0299 
     73 CB        -42.7662  -27.8219    8.0718 C.3       3 UNK        -0.1972 
     74 N         -44.3936  -26.9996    6.4481 N.am      3 UNK        -0.4305 
     75 C         -44.7776  -26.4551    5.2841 C.2       2 UNK         0.5006 
     76 O         -44.1017  -25.6385    4.6571 O.2       2 UNK        -0.5106 
     77 CA        -46.1518  -26.8754    4.7226 C.3       2 UNK         0.0296 
     78 CB        -45.9801  -27.9284    3.6156 C.3       2 UNK        -0.2002 
     79 N         -47.0934  -27.3833    5.7279 N.am      2 UNK        -0.4032 
     80 C         -47.5213  -26.6907    6.7923 C.2       1 UNK         0.5000 
     81 O         -47.1668  -25.5379    7.0424 O.2       1 UNK        -0.5238 
     82 H82       -47.1597  -27.0393   11.5287 H         1 UNK         0.0889 
     83 H83       -45.4606  -27.2742   11.0949 H         1 UNK         0.0889 
     84 H84       -46.4606  -28.6551   11.5516 H         1 UNK         0.0889 
     85 H85       -48.4598  -26.6645    9.7431 H         1 UNK         0.3028 
     86 H86       -48.4782  -28.4791    7.5217 H         1 UNK         0.0864 
     87 H87       -50.4791  -27.1659    8.5439 H         1 UNK         0.0720 
     88 H88       -49.9407  -25.7935    7.6288 H         1 UNK         0.0720 
     89 H89       -51.3012  -29.5786    7.3077 H         1 UNK         0.0814 
     90 H90       -52.4908  -29.2095    6.0804 H         1 UNK         0.0814 
     91 H91       -53.3651  -26.4568    6.7660 H         1 UNK         0.1469 
     92 H92       -55.1425  -26.6660   10.6579 H         1 UNK         0.1381 
     93 H93       -52.5160  -29.7844    9.3371 H         1 UNK         0.1206 
     94 H94       -53.1031  -29.5225   11.7277 H         1 UNK         0.0813 
     95 H95       -54.2750  -28.3401   12.2544 H         1 UNK         0.0813 
     96 H96       -54.1813  -30.8487   13.4013 H         1 UNK         0.0638 
     97 H97       -54.8498  -32.2535   12.6143 H         1 UNK         0.0638 
     98 H98       -57.1502  -31.5385   13.2682 H         1 UNK         0.0568 
     99 H99       -56.0551  -32.3562   17.0378 H         1 UNK         0.3450 
    100 H100      -56.2551  -30.7177   16.4706 H         1 UNK         0.3450 
    101 H101      -55.8238  -29.1483   14.3148 H         1 UNK         0.2987 
    102 H102      -58.7476  -27.4108   14.4370 H         1 UNK         0.0766 
    103 H103      -59.3025  -28.3777   16.6749 H         1 UNK         0.0798 
    104 H104      -58.5447  -26.8038   16.8410 H         1 UNK         0.0798 
    105 H105      -57.6148  -28.2676   17.1581 H         1 UNK         0.0798 
    106 H106      -56.1568  -26.9346   15.6962 H         1 UNK         0.3198 
    107 H107      -54.6599  -25.6028   12.7695 H         1 UNK         0.0843 
    108 H108      -55.5944  -24.2685   15.3582 H         1 UNK         0.0831 
    109 H109      -56.1206  -23.8204   13.7433 H         1 UNK         0.0831 
    110 H110      -54.4383  -23.6236   14.1940 H         1 UNK         0.0831 
    111 H111      -53.0289  -26.3715   13.9715 H         1 UNK         0.3133 
    112 H112      -52.0543  -26.3874   16.9975 H         1 UNK         0.0566 
    113 H113      -53.0350  -29.2626   16.6280 H         1 UNK         0.0814 
    114 H114      -53.2135  -28.2617   18.0571 H         1 UNK         0.0814 
    115 H115      -51.6160  -28.7939   17.5652 H         1 UNK         0.0814 
    116 H116      -50.6663  -26.6036   15.3447 H         1 UNK         0.3091 
    117 H117      -49.3341  -28.9779   13.7973 H         1 UNK         0.0702 
    118 H118      -49.4842  -28.4595   11.3417 H         1 UNK         0.0785 
    119 H119      -51.1128  -27.8324   11.5789 H         1 UNK         0.0785 
    120 H120      -50.7592  -29.5318   11.8766 H         1 UNK         0.0785 
    121 H121      -49.8572  -26.1533   13.0195 H         1 UNK         0.2998 
    122 H122      -47.5826  -24.8993   15.3384 H         1 UNK         0.0697 
    123 H123      -46.9896  -24.8625   12.3402 H         1 UNK         0.0825 
    124 H124      -45.8883  -25.5092   13.5521 H         1 UNK         0.0825 
    125 H125      -46.3058  -23.8039   13.5681 H         1 UNK         0.0825 
    126 H126      -48.9565  -23.7312   13.0845 H         1 UNK         0.3029 
    127 H127      -52.1247  -23.4408   14.6449 H         1 UNK         0.0897 
    128 H128      -50.0554  -21.2578   14.0406 H         1 UNK         0.0792 
    129 H129      -50.8432  -21.5113   15.5918 H         1 UNK         0.0792 
    130 H130      -51.7971  -21.0257   14.2016 H         1 UNK         0.0792 
    131 H131      -51.2534  -22.4297   12.1660 H         1 UNK         0.3086 
    132 H132      -51.8872  -25.3537   10.1871 H         1 UNK         0.0583 
    133 H133      -54.0689  -24.2176   10.8162 H         1 UNK         0.1020 
    134 H134      -53.3203  -22.6654   10.5947 H         1 UNK         0.1020 
    135 H135      -55.7482  -24.8594    9.1670 H         1 UNK         0.0694 
    136 H136      -55.4390  -25.0612    7.4603 H         1 UNK         0.0694 
    137 H137      -51.0706  -22.8116    9.3559 H         1 UNK         0.2989 
    138 H138      -48.7734  -22.9070    8.2468 H         1 UNK         0.1055 
    139 H139      -47.9547  -20.8269    9.4466 H         1 UNK         0.0806 
    140 H140      -48.4241  -21.5298   10.9902 H         1 UNK         0.0806 
    141 H141      -49.6443  -21.1108    9.7933 H         1 UNK         0.0806 
    142 H142      -47.0461  -24.1455   10.1585 H         1 UNK         0.3061 
    143 H143      -44.0022  -22.9078    8.8321 H         1 UNK         0.0734 
    144 H144      -45.1821  -24.9105   10.8265 H         1 UNK         0.0832 
    145 H145      -43.5604  -24.2407   10.8150 H         1 UNK         0.0832 
    146 H146      -44.9196  -23.2069   11.2035 H         1 UNK         0.0832 
    147 H147      -45.3206  -25.2462    7.7839 H         1 UNK         0.3156 
    148 H148      -42.3682  -26.5008    6.4345 H         1 UNK         0.0589 
    149 H149      -43.5074  -28.0032    8.8508 H         1 UNK         0.0808 
    150 H150      -41.8159  -27.6233    8.5693 H         1 UNK         0.0808 
    151 H151      -42.6448  -28.7432    7.5018 H         1 UNK         0.0808 
    152 H152      -45.0103  -27.6585    6.9062 H         1 UNK         0.3098 
    153 H153      -46.6011  -25.9841    4.2794 H         1 UNK         0.0720 
    154 H154      -45.3086  -27.5684    2.8346 H         1 UNK         0.0791 
    155 H155      -46.9317  -28.1623    3.1376 H         1 UNK         0.0791 
    156 H156      -45.5598  -28.8572    4.0036 H         1 UNK         0.0791 
    157 H157      -47.4274  -28.3274    5.5958 H         1 UNK         0.3028 
@<TRIPOS>BOND
     1    1    2 1    
     2    1   82 1    
     3    1   83 1    
     4    1   84 1    
     5    2    3 2    
     6    2    4 am   BACKBONE|DICT|INTERRES
     7    4    5 1    
     8    4   85 1    
     9    5    6 1    
    10    5   80 1    
    11    5   86 1    
    12    6    7 1    
    13    6   87 1    
    14    6   88 1    
    15    7    8 1    
    16    8    9 1    
    17    8   89 1    
    18    8   90 1    
    19    9   10 ar   
    20    9   14 ar   
    21   10   11 ar   
    22   10   91 1    
    23   11   12 ar   
    24   11   58 1    
    25   12   13 ar   
    26   12   92 1    
    27   13   14 ar   
    28   13   15 1    
    29   14   93 1    
    30   15   16 1    
    31   15   94 1    
    32   15   95 1    
    33   16   17 1    
    34   17   18 1    
    35   17   96 1    
    36   17   97 1    
    37   18   19 1    
    38   18   22 1    
    39   18   98 1    
    40   19   20 am   BACKBONE|DICT|INTERRES
    41   19   21 2    
    42   20   99 1    
    43   20  100 1    
    44   22   23 am   BACKBONE|DICT|INTERRES
    45   22  101 1    
    46   23   24 2    
    47   23   25 1    
    48   25   26 1    
    49   25   27 1    
    50   25  102 1    
    51   26  103 1    
    52   26  104 1    
    53   26  105 1    
    54   27   28 am   BACKBONE|DICT|INTERRES
    55   27  106 1    
    56   28   29 2    
    57   28   30 1    
    58   30   31 1    
    59   30   32 1    
    60   30  107 1    
    61   31  108 1    
    62   31  109 1    
    63   31  110 1    
    64   32   33 am   BACKBONE|DICT|INTERRES
    65   32  111 1    
    66   33   34 2    
    67   33   35 1    
    68   35   36 1    
    69   35   37 1    
    70   35  112 1    
    71   36  113 1    
    72   36  114 1    
    73   36  115 1    
    74   37   38 am   BACKBONE|DICT|INTERRES
    75   37  116 1    
    76   38   39 2    
    77   38   40 1    
    78   40   41 1    
    79   40   42 1    
    80   40  117 1    
    81   41  118 1    
    82   41  119 1    
    83   41  120 1    
    84   42   43 am   BACKBONE|DICT|INTERRES
    85   42  121 1    
    86   43   44 2    
    87   43   45 1    
    88   45   46 1    
    89   45   47 1    
    90   45  122 1    
    91   46  123 1    
    92   46  124 1    
    93   46  125 1    
    94   47   48 am   BACKBONE|DICT|INTERRES
    95   47  126 1    
    96   48   49 2    
    97   48   50 1    
    98   50   51 1    
    99   50   52 1    
   100   50  127 1    
   101   51  128 1    
   102   51  129 1    
   103   51  130 1    
   104   52   53 am   BACKBONE|DICT|INTERRES
   105   52  131 1    
   106   53   54 2    
   107   53   55 1    
   108   55   56 1    
   109   55   59 1    
   110   55  132 1    
   111   56   57 1    
   112   56  133 1    
   113   56  134 1    
   114   57   58 1    
   115   58  135 1    
   116   58  136 1    
   117   59   60 am   BACKBONE|DICT|INTERRES
   118   59  137 1    
   119   60   61 2    
   120   60   62 1    
   121   62   63 1    
   122   62   64 1    
   123   62  138 1    
   124   63  139 1    
   125   63  140 1    
   126   63  141 1    
   127   64   65 am   BACKBONE|DICT|INTERRES
   128   64  142 1    
   129   65   66 2    
   130   65   67 1    
   131   67   68 1    
   132   67   69 1    
   133   67  143 1    
   134   68  144 1    
   135   68  145 1    
   136   68  146 1    
   137   69   70 am   BACKBONE|DICT|INTERRES
   138   69  147 1    
   139   70   71 2    
   140   70   72 1    
   141   72   73 1    
   142   72   74 1    
   143   72  148 1    
   144   73  149 1    
   145   73  150 1    
   146   73  151 1    
   147   74   75 am   BACKBONE|DICT|INTERRES
   148   74  152 1    
   149   75   76 2    
   150   75   77 1    
   151   77   78 1    
   152   77   79 1    
   153   77  153 1    
   154   78  154 1    
   155   78  155 1    
   156   78  156 1    
   157   79   80 am   BACKBONE|DICT|INTERRES
   158   79  157 1    
   159   80   81 2    
@<TRIPOS>SUBSTRUCTURE
     1 UNK         1 GROUP             0       ****    0 ROOT    
