@<TRIPOS>MOLECULE
3R207
157   159    1
SMALL
USER_CHARGES


@<TRIPOS>ATOM
      1 CA        -44.2790  -28.1342    6.1391 C.3       0 UNK        -0.1975 
      2 C         -45.6864  -28.0573    5.5654 C.2       0 UNK         0.4852 
      3 O         -45.8474  -27.9433    4.3492 O.2       0 UNK        -0.5216 
      4 N         -46.7042  -28.1250    6.4320 N.am      1 UNK        -0.4461 
      5 CA        -48.1169  -27.9611    6.0793 C.3       1 UNK         0.0864 
      6 C6        -49.0205  -28.5384    7.1945 C.3       14 UNK        -0.0898 
      7 S7        -50.7233  -28.8802    6.6262 S.3       14 UNK        -0.2598 
      8 C8        -50.9187  -30.6490    7.0235 C.3       14 UNK         0.0286 
      9 C9        -50.9727  -30.8801    8.5268 C.ar      14 UNK        -0.0844 
     10 C10       -49.8474  -31.3415    9.2129 C.ar      14 UNK        -0.0881 
     11 C11       -49.8769  -31.5078   10.5998 C.ar      14 UNK        -0.0643 
     12 C12       -51.0483  -31.2085   11.3054 C.ar      14 UNK        -0.0930 
     13 C13       -52.1922  -30.7695   10.6269 C.ar      14 UNK        -0.0827 
     14 C14       -52.1482  -30.6218    9.2357 C.ar      14 UNK        -0.1249 
     15 C15       -53.4783  -30.4650   11.3887 C.3       14 UNK         0.0141 
     16 S16       -54.0919  -28.7900   11.0286 S.3       14 UNK        -0.2313 
     17 C17       -55.5560  -28.6787   12.1064 C.3       14 UNK        -0.0915 
     18 CA        -56.3120  -27.3385   11.9050 C.3       13 UNK         0.0968 
     19 C         -57.6268  -27.2833   12.7381 C.2       13 UNK         0.5732 
     20 N         -57.8554  -26.2822   13.5812 N.am      13 UNK        -0.7310 
     21 O         -58.4734  -28.1636   12.6009 O.2       13 UNK        -0.5035 
     22 N         -55.4222  -26.1864   12.1046 N.am      13 UNK        -0.4233 
     23 C         -55.5835  -24.9798   11.5520 C.2       13 UNK         0.4989 
     24 O         -56.4762  -24.7034   10.7484 O.2       13 UNK        -0.4996 
     25 CA        -54.5731  -23.9045   11.9935 C.3       12 UNK         0.0216 
     26 CB        -55.0207  -22.4683   11.6487 C.3       12 UNK        -0.1964 
     27 N         -54.2199  -24.0222   13.4153 N.am      12 UNK        -0.4276 
     28 C         -55.0461  -23.9297   14.4676 C.2       12 UNK         0.5020 
     29 O         -56.2586  -23.7265   14.3731 O.2       12 UNK        -0.5489 
     30 CA        -54.4009  -24.1192   15.8520 C.3       11 UNK         0.0294 
     31 CB        -55.4266  -24.1064   17.0061 C.3       11 UNK        -0.2019 
     32 N         -53.5408  -25.3063   15.9290 N.am      11 UNK        -0.4493 
     33 C         -53.9021  -26.5936   15.8019 C.2       11 UNK         0.4932 
     34 O         -55.0489  -26.9509   15.5323 O.2       11 UNK        -0.5029 
     35 CA        -52.8200  -27.6767   16.0167 C.3       10 UNK         0.0280 
     36 CB        -52.9372  -28.8052   14.9778 C.3       10 UNK        -0.1976 
     37 N         -51.4511  -27.1565   15.9934 N.am      10 UNK        -0.4242 
     38 C         -50.8129  -26.5707   17.0161 C.2       10 UNK         0.5072 
     39 O         -51.2824  -26.4676   18.1494 O.2       10 UNK        -0.5224 
     40 CA        -49.4451  -25.9323   16.7028 C.3       9 UNK         0.0343 
     41 CB        -48.3129  -26.9551   16.8818 C.3       9 UNK        -0.2003 
     42 N         -49.3797  -25.3480   15.3573 N.am      9 UNK        -0.4272 
     43 C         -50.1676  -24.3511   14.9236 C.2       9 UNK         0.4988 
     44 O         -50.9889  -23.7684   15.6315 O.2       9 UNK        -0.5108 
     45 CA        -50.0754  -23.9891   13.4346 C.3       8 UNK         0.0248 
     46 CB        -48.8872  -23.0509   13.1722 C.3       8 UNK        -0.2001 
     47 N         -49.9987  -25.1853   12.5900 N.am      8 UNK        -0.4140 
     48 C         -51.0138  -26.0479   12.4260 C.2       8 UNK         0.5028 
     49 O         -52.1358  -25.8743   12.8995 O.2       8 UNK        -0.5428 
     50 CA        -50.7212  -27.3482   11.6638 C.3       7 UNK         0.0264 
     51 CB        -50.9515  -27.1775   10.1591 C.3       7 UNK        -0.1988 
     52 N         -49.3707  -27.8487   11.9182 N.am      7 UNK        -0.4454 
     53 C         -49.0129  -28.4164   13.0803 C.2       7 UNK         0.5027 
     54 O         -49.7992  -28.6062   14.0078 O.2       7 UNK        -0.5083 
     55 CA        -47.5288  -28.7832   13.2865 C.3       6 UNK         0.0844 
     56 C56       -47.2641  -30.2933   13.0835 C.3       14 UNK        -0.0967 
     57 S57       -47.2829  -30.8365   11.3383 S.3       14 UNK        -0.2604 
     58 C58       -48.6457  -32.0483   11.3119 C.3       14 UNK         0.0134 
     59 N         -46.6053  -27.9374   12.5268 N.am      6 UNK        -0.4116 
     60 C         -46.4664  -26.6168   12.7001 C.2       5 UNK         0.5034 
     61 O         -47.1016  -25.9745   13.5389 O.2       5 UNK        -0.5045 
     62 CA        -45.4857  -25.8715   11.7740 C.3       5 UNK         0.0224 
     63 CB        -44.6730  -26.7932   10.8334 C.3       5 UNK        -0.1978 
     64 N         -46.1597  -24.8214   10.9984 N.am      5 UNK        -0.4737 
     65 C         -47.1874  -24.9843   10.1531 C.2       4 UNK         0.5027 
     66 O         -47.7369  -26.0700    9.9469 O.2       4 UNK        -0.5211 
     67 CA        -47.6622  -23.7169    9.4231 C.3       4 UNK         0.0297 
     68 CB        -46.5823  -23.2115    8.4496 C.3       4 UNK        -0.1993 
     69 N         -48.8825  -23.9972    8.6667 N.am      4 UNK        -0.4486 
     70 C         -50.1078  -23.5438    8.9669 C.2       3 UNK         0.4961 
     71 O         -50.3337  -22.7735    9.9004 O.2       3 UNK        -0.5105 
     72 CA        -51.2947  -24.0441    8.1114 C.3       3 UNK         0.0299 
     73 CB        -52.3997  -22.9778    7.9494 C.3       3 UNK        -0.1972 
     74 N         -50.9105  -24.6196    6.8150 N.am      3 UNK        -0.4305 
     75 C         -50.3408  -23.9856    5.7774 C.2       2 UNK         0.5006 
     76 O         -50.1192  -22.7738    5.7486 O.2       2 UNK        -0.5106 
     77 CA        -49.9283  -24.8727    4.5806 C.3       2 UNK         0.0296 
     78 CB        -48.9052  -24.1796    3.6550 C.3       2 UNK        -0.2002 
     79 N         -49.4375  -26.2051    4.9708 N.am      2 UNK        -0.4032 
     80 C         -48.4310  -26.4729    5.8181 C.2       1 UNK         0.5000 
     81 O         -47.7990  -25.6042    6.4227 O.2       1 UNK        -0.5238 
     82 H82       -43.7216  -27.2329    5.8852 H         1 UNK         0.0889 
     83 H83       -43.7501  -28.9914    5.7233 H         1 UNK         0.0889 
     84 H84       -44.2855  -28.2333    7.2246 H         1 UNK         0.0889 
     85 H85       -46.5082  -28.1679    7.4214 H         1 UNK         0.3028 
     86 H86       -48.2943  -28.5206    5.1578 H         1 UNK         0.0864 
     87 H87       -48.5876  -29.4699    7.5581 H         1 UNK         0.0720 
     88 H88       -49.0505  -27.8747    8.0602 H         1 UNK         0.0720 
     89 H89       -50.1075  -31.2194    6.5684 H         1 UNK         0.0814 
     90 H90       -51.8404  -31.0135    6.5675 H         1 UNK         0.0814 
     91 H91       -48.9386  -31.5649    8.6712 H         1 UNK         0.1469 
     92 H92       -51.0720  -31.3294   12.3798 H         1 UNK         0.1381 
     93 H93       -53.0240  -30.2733    8.7054 H         1 UNK         0.1206 
     94 H94       -53.3229  -30.5616   12.4641 H         1 UNK         0.0813 
     95 H95       -54.2392  -31.1959   11.1125 H         1 UNK         0.0813 
     96 H96       -56.2065  -29.5264   11.8838 H         1 UNK         0.0638 
     97 H97       -55.2435  -28.7877   13.1451 H         1 UNK         0.0638 
     98 H98       -56.6385  -27.3162   10.8636 H         1 UNK         0.0568 
     99 H99       -57.1761  -25.5431   13.7158 H         1 UNK         0.3450 
    100 H100      -58.7159  -26.2699   14.1039 H         1 UNK         0.3450 
    101 H101      -54.6563  -26.3234   12.7496 H         1 UNK         0.2987 
    102 H102      -53.6579  -24.1043   11.4338 H         1 UNK         0.0766 
    103 H103      -55.9645  -22.2111   12.1305 H         1 UNK         0.0798 
    104 H104      -54.2746  -21.7363   11.9576 H         1 UNK         0.0798 
    105 H105      -55.1621  -22.3509   10.5736 H         1 UNK         0.0798 
    106 H106      -53.2734  -24.3506   13.5847 H         1 UNK         0.3198 
    107 H107      -53.7432  -23.2603   15.9948 H         1 UNK         0.0843 
    108 H108      -55.9846  -23.1694   17.0204 H         1 UNK         0.0831 
    109 H109      -54.9363  -24.2059   17.9744 H         1 UNK         0.0831 
    110 H110      -56.1539  -24.9136   16.9127 H         1 UNK         0.0831 
    111 H111      -52.5608  -25.1042   16.0921 H         1 UNK         0.3133 
    112 H112      -53.0043  -28.1137   17.0000 H         1 UNK         0.0566 
    113 H113      -52.1688  -29.5644   15.1246 H         1 UNK         0.0814 
    114 H114      -53.9013  -29.3089   15.0517 H         1 UNK         0.0814 
    115 H115      -52.8400  -28.4229   13.9616 H         1 UNK         0.0814 
    116 H116      -50.9541  -27.2594   15.1154 H         1 UNK         0.3091 
    117 H117      -49.2867  -25.1212   17.4165 H         1 UNK         0.0702 
    118 H118      -47.3410  -26.5232   16.6413 H         1 UNK         0.0785 
    119 H119      -48.4587  -27.8319   16.2521 H         1 UNK         0.0785 
    120 H120      -48.2676  -27.3042   17.9142 H         1 UNK         0.0785 
    121 H121      -48.6878  -25.7290   14.7186 H         1 UNK         0.2998 
    122 H122      -50.9869  -23.4492   13.1687 H         1 UNK         0.0697 
    123 H123      -47.9268  -23.5425   13.3213 H         1 UNK         0.0825 
    124 H124      -48.9174  -22.1906   13.8424 H         1 UNK         0.0825 
    125 H125      -48.9151  -22.6588   12.1580 H         1 UNK         0.0825 
    126 H126      -49.0948  -25.4236   12.2065 H         1 UNK         0.3029 
    127 H127      -51.4276  -28.0997   12.0197 H         1 UNK         0.0897 
    128 H128      -50.2640  -26.4590    9.7186 H         1 UNK         0.0792 
    129 H129      -51.9675  -26.8357    9.9601 H         1 UNK         0.0792 
    130 H130      -50.8274  -28.1265    9.6402 H         1 UNK         0.0792 
    131 H131      -48.6720  -27.6803   11.2036 H         1 UNK         0.3086 
    132 H132      -47.3195  -28.5777   14.3378 H         1 UNK         0.0583 
    133 H133      -46.2795  -30.5374   13.4854 H         1 UNK         0.1020 
    134 H134      -47.9633  -30.8809   13.6810 H         1 UNK         0.1020 
    135 H135      -48.3001  -32.9379   10.7834 H         1 UNK         0.0694 
    136 H136      -48.8949  -32.3844   12.3188 H         1 UNK         0.0694 
    137 H137      -46.0814  -28.3948   11.7950 H         1 UNK         0.2989 
    138 H138      -44.7787  -25.3680   12.4354 H         1 UNK         0.1055 
    139 H139      -44.0964  -27.5280   11.3972 H         1 UNK         0.0806 
    140 H140      -43.9576  -26.2153   10.2480 H         1 UNK         0.0806 
    141 H141      -45.3075  -27.3325   10.1290 H         1 UNK         0.0806 
    142 H142      -45.7965  -23.8875   11.1311 H         1 UNK         0.3061 
    143 H143      -47.8427  -22.9390   10.1652 H         1 UNK         0.0734 
    144 H144      -46.9464  -22.3734    7.8549 H         1 UNK         0.0832 
    145 H145      -45.6974  -22.8653    8.9843 H         1 UNK         0.0832 
    146 H146      -46.2579  -23.9920    7.7608 H         1 UNK         0.0832 
    147 H147      -48.7613  -24.6508    7.8984 H         1 UNK         0.3156 
    148 H148      -51.7385  -24.8640    8.6738 H         1 UNK         0.0589 
    149 H149      -52.0244  -22.0733    7.4702 H         1 UNK         0.0808 
    150 H150      -53.2319  -23.3540    7.3546 H         1 UNK         0.0808 
    151 H151      -52.8050  -22.6842    8.9187 H         1 UNK         0.0808 
    152 H152      -51.0444  -25.6178    6.7285 H         1 UNK         0.3098 
    153 H153      -50.8382  -25.0375    4.0017 H         1 UNK         0.0720 
    154 H154      -48.6475  -24.8109    2.8046 H         1 UNK         0.0791 
    155 H155      -47.9827  -23.9380    4.1845 H         1 UNK         0.0791 
    156 H156      -49.3050  -23.2472    3.2544 H         1 UNK         0.0791 
    157 H157      -49.9291  -26.9875    4.5595 H         1 UNK         0.3028 
@<TRIPOS>BOND
     1    1    2 1    
     2    1   82 1    
     3    1   83 1    
     4    1   84 1    
     5    2    3 2    
     6    2    4 am   BACKBONE|DICT|INTERRES
     7    4    5 1    
     8    4   85 1    
     9    5    6 1    
    10    5   80 1    
    11    5   86 1    
    12    6    7 1    
    13    6   87 1    
    14    6   88 1    
    15    7    8 1    
    16    8    9 1    
    17    8   89 1    
    18    8   90 1    
    19    9   10 ar   
    20    9   14 ar   
    21   10   11 ar   
    22   10   91 1    
    23   11   12 ar   
    24   11   58 1    
    25   12   13 ar   
    26   12   92 1    
    27   13   14 ar   
    28   13   15 1    
    29   14   93 1    
    30   15   16 1    
    31   15   94 1    
    32   15   95 1    
    33   16   17 1    
    34   17   18 1    
    35   17   96 1    
    36   17   97 1    
    37   18   19 1    
    38   18   22 1    
    39   18   98 1    
    40   19   20 am   BACKBONE|DICT|INTERRES
    41   19   21 2    
    42   20   99 1    
    43   20  100 1    
    44   22   23 am   BACKBONE|DICT|INTERRES
    45   22  101 1    
    46   23   24 2    
    47   23   25 1    
    48   25   26 1    
    49   25   27 1    
    50   25  102 1    
    51   26  103 1    
    52   26  104 1    
    53   26  105 1    
    54   27   28 am   BACKBONE|DICT|INTERRES
    55   27  106 1    
    56   28   29 2    
    57   28   30 1    
    58   30   31 1    
    59   30   32 1    
    60   30  107 1    
    61   31  108 1    
    62   31  109 1    
    63   31  110 1    
    64   32   33 am   BACKBONE|DICT|INTERRES
    65   32  111 1    
    66   33   34 2    
    67   33   35 1    
    68   35   36 1    
    69   35   37 1    
    70   35  112 1    
    71   36  113 1    
    72   36  114 1    
    73   36  115 1    
    74   37   38 am   BACKBONE|DICT|INTERRES
    75   37  116 1    
    76   38   39 2    
    77   38   40 1    
    78   40   41 1    
    79   40   42 1    
    80   40  117 1    
    81   41  118 1    
    82   41  119 1    
    83   41  120 1    
    84   42   43 am   BACKBONE|DICT|INTERRES
    85   42  121 1    
    86   43   44 2    
    87   43   45 1    
    88   45   46 1    
    89   45   47 1    
    90   45  122 1    
    91   46  123 1    
    92   46  124 1    
    93   46  125 1    
    94   47   48 am   BACKBONE|DICT|INTERRES
    95   47  126 1    
    96   48   49 2    
    97   48   50 1    
    98   50   51 1    
    99   50   52 1    
   100   50  127 1    
   101   51  128 1    
   102   51  129 1    
   103   51  130 1    
   104   52   53 am   BACKBONE|DICT|INTERRES
   105   52  131 1    
   106   53   54 2    
   107   53   55 1    
   108   55   56 1    
   109   55   59 1    
   110   55  132 1    
   111   56   57 1    
   112   56  133 1    
   113   56  134 1    
   114   57   58 1    
   115   58  135 1    
   116   58  136 1    
   117   59   60 am   BACKBONE|DICT|INTERRES
   118   59  137 1    
   119   60   61 2    
   120   60   62 1    
   121   62   63 1    
   122   62   64 1    
   123   62  138 1    
   124   63  139 1    
   125   63  140 1    
   126   63  141 1    
   127   64   65 am   BACKBONE|DICT|INTERRES
   128   64  142 1    
   129   65   66 2    
   130   65   67 1    
   131   67   68 1    
   132   67   69 1    
   133   67  143 1    
   134   68  144 1    
   135   68  145 1    
   136   68  146 1    
   137   69   70 am   BACKBONE|DICT|INTERRES
   138   69  147 1    
   139   70   71 2    
   140   70   72 1    
   141   72   73 1    
   142   72   74 1    
   143   72  148 1    
   144   73  149 1    
   145   73  150 1    
   146   73  151 1    
   147   74   75 am   BACKBONE|DICT|INTERRES
   148   74  152 1    
   149   75   76 2    
   150   75   77 1    
   151   77   78 1    
   152   77   79 1    
   153   77  153 1    
   154   78  154 1    
   155   78  155 1    
   156   78  156 1    
   157   79   80 am   BACKBONE|DICT|INTERRES
   158   79  157 1    
   159   80   81 2    
@<TRIPOS>SUBSTRUCTURE
     1 UNK         1 GROUP             0       ****    0 ROOT    
