@<TRIPOS>MOLECULE
3R207
157   159    1
SMALL
USER_CHARGES


@<TRIPOS>ATOM
      1 CA        -54.7660  -27.6583    6.6018 C.3       0 UNK        -0.1975 
      2 C         -54.7501  -28.4541    5.2990 C.2       0 UNK         0.4852 
      3 O         -55.8172  -28.8024    4.7964 O.2       0 UNK        -0.5216 
      4 N         -53.5853  -28.7827    4.7221 N.am      1 UNK        -0.4461 
      5 CA        -52.2304  -28.3976    5.1419 C.3       1 UNK         0.0864 
      6 C6        -51.1546  -29.2556    4.4243 C.3       14 UNK        -0.0898 
      7 S7        -51.3816  -31.0500    4.6734 S.3       14 UNK        -0.2598 
      8 C8        -50.1787  -31.4238    5.9993 C.3       14 UNK         0.0286 
      9 C9        -50.5617  -30.9269    7.3953 C.ar      14 UNK        -0.0844 
     10 C10       -49.5484  -30.6971    8.3323 C.ar      14 UNK        -0.0881 
     11 C11       -49.8532  -30.2793    9.6317 C.ar      14 UNK        -0.0643 
     12 C12       -51.1865  -30.0638    9.9882 C.ar      14 UNK        -0.0930 
     13 C13       -52.2126  -30.2984    9.0697 C.ar      14 UNK        -0.0827 
     14 C14       -51.8953  -30.7459    7.7844 C.ar      14 UNK        -0.1249 
     15 C15       -53.6637  -30.0606    9.4575 C.3       14 UNK         0.0141 
     16 S16       -54.2151  -31.1928   10.7715 S.3       14 UNK        -0.2313 
     17 C17       -56.0365  -31.0143   10.7534 C.3       14 UNK        -0.0915 
     18 CA        -56.5911  -29.5946   10.4537 C.3       13 UNK         0.0968 
     19 C         -58.1441  -29.6140   10.4048 C.2       13 UNK         0.5732 
     20 N         -58.7238  -29.9391    9.2571 N.am      13 UNK        -0.7310 
     21 O         -58.8258  -29.3781   11.4012 O.2       13 UNK        -0.5035 
     22 N         -56.0765  -28.6082   11.4105 N.am      13 UNK        -0.4233 
     23 C         -56.1718  -27.2826   11.2801 C.2       13 UNK         0.4989 
     24 O         -56.5996  -26.7292   10.2665 O.2       13 UNK        -0.4996 
     25 CA        -55.7142  -26.4101   12.4657 C.3       12 UNK         0.0216 
     26 CB        -56.8742  -26.1939   13.4567 C.3       12 UNK        -0.1964 
     27 N         -54.4996  -26.8522   13.1710 N.am      12 UNK        -0.4276 
     28 C         -54.2797  -27.9709   13.8798 C.2       12 UNK         0.5020 
     29 O         -55.0847  -28.8971   13.9853 O.2       12 UNK        -0.5489 
     30 CA        -52.9249  -28.0658   14.6034 C.3       11 UNK         0.0294 
     31 CB        -51.8635  -28.6754   13.6751 C.3       11 UNK        -0.2019 
     32 N         -52.4494  -26.7733   15.1095 N.am      11 UNK        -0.4493 
     33 C         -53.0475  -26.0736   16.0867 C.2       11 UNK         0.4932 
     34 O         -54.0626  -26.4508   16.6748 O.2       11 UNK        -0.5029 
     35 CA        -52.3930  -24.7312   16.4634 C.3       10 UNK         0.0280 
     36 CB        -53.0085  -24.0808   17.7206 C.3       10 UNK        -0.1976 
     37 N         -50.9360  -24.8338   16.5840 N.am      10 UNK        -0.4242 
     38 C         -50.2329  -25.6005   17.4330 C.2       10 UNK         0.5072 
     39 O         -50.7416  -26.3091   18.3029 O.2       10 UNK        -0.5224 
     40 CA        -48.6978  -25.6025   17.2868 C.3       9 UNK         0.0343 
     41 CB        -48.2203  -26.9587   16.7407 C.3       9 UNK        -0.2003 
     42 N         -48.1817  -24.5353   16.4245 N.am      9 UNK        -0.4272 
     43 C         -48.1369  -23.2363   16.7524 C.2       9 UNK         0.4988 
     44 O         -48.4489  -22.7982   17.8601 O.2       9 UNK        -0.5108 
     45 CA        -47.7110  -22.2550   15.6457 C.3       8 UNK         0.0248 
     46 CB        -46.1792  -22.1533   15.5730 C.3       8 UNK        -0.2001 
     47 N         -48.2509  -22.5996   14.3245 N.am      8 UNK        -0.4140 
     48 C         -49.5574  -22.6425   14.0199 C.2       8 UNK         0.5028 
     49 O         -50.4542  -22.3668   14.8159 O.2       8 UNK        -0.5428 
     50 CA        -49.9376  -23.1305   12.6122 C.3       7 UNK         0.0264 
     51 CB        -49.7199  -22.0304   11.5615 C.3       7 UNK        -0.1988 
     52 N         -49.2067  -24.3373   12.2268 N.am      7 UNK        -0.4454 
     53 C         -49.3245  -25.5289   12.8319 C.2       7 UNK         0.5027 
     54 O         -50.1267  -25.7662   13.7368 O.2       7 UNK        -0.5083 
     55 CA        -48.3616  -26.6332   12.3566 C.3       6 UNK         0.0844 
     56 C56       -48.9216  -27.3137   11.0845 C.3       14 UNK        -0.0967 
     57 S57       -47.8019  -28.5745   10.3904 S.3       14 UNK        -0.2604 
     58 C58       -48.7427  -30.1055   10.6580 C.3       14 UNK         0.0134 
     59 N         -47.0097  -26.1011   12.1599 N.am      6 UNK        -0.4116 
     60 C         -46.2094  -25.6364   13.1286 C.2       5 UNK         0.5034 
     61 O         -46.5088  -25.6250   14.3210 O.2       5 UNK        -0.5045 
     62 CA        -44.8623  -25.0427   12.6833 C.3       5 UNK         0.0224 
     63 CB        -43.8188  -26.1544   12.4908 C.3       5 UNK        -0.1978 
     64 N         -44.9727  -24.2539   11.4529 N.am      5 UNK        -0.4737 
     65 C         -45.6698  -23.1135   11.3449 C.2       4 UNK         0.5027 
     66 O         -46.2383  -22.5697   12.2901 O.2       4 UNK        -0.5211 
     67 CA        -45.8073  -22.5142    9.9338 C.3       4 UNK         0.0297 
     68 CB        -44.6230  -21.5853    9.6250 C.3       4 UNK        -0.1993 
     69 N         -45.9281  -23.5314    8.8816 N.am      4 UNK        -0.4486 
     70 C         -46.9069  -24.4445    8.8191 C.2       3 UNK         0.4961 
     71 O         -47.8271  -24.5108    9.6375 O.2       3 UNK        -0.5105 
     72 CA        -46.7856  -25.4934    7.7001 C.3       3 UNK         0.0299 
     73 CB        -45.6504  -26.4845    8.0120 C.3       3 UNK        -0.1972 
     74 N         -48.0310  -26.2425    7.5077 N.am      3 UNK        -0.4305 
     75 C         -49.1076  -25.7571    6.8783 C.2       2 UNK         0.5006 
     76 O         -49.1568  -24.6339    6.3668 O.2       2 UNK        -0.5106 
     77 CA        -50.3345  -26.6782    6.7945 C.3       2 UNK         0.0296 
     78 CB        -51.1535  -26.6420    8.0992 C.3       2 UNK        -0.2002 
     79 N         -51.1513  -26.2052    5.6776 N.am      2 UNK        -0.4032 
     80 C         -51.9788  -26.8928    4.8806 C.2       1 UNK         0.5000 
     81 O         -52.5367  -26.3521    3.9240 O.2       1 UNK        -0.5238 
     82 H82       -55.7727  -27.6284    7.0188 H         1 UNK         0.0889 
     83 H83       -54.4480  -26.6300    6.4338 H         1 UNK         0.0889 
     84 H84       -54.1198  -28.1125    7.3486 H         1 UNK         0.0889 
     85 H85       -53.6177  -29.3114    3.8627 H         1 UNK         0.3028 
     86 H86       -52.1541  -28.5828    6.2107 H         1 UNK         0.0864 
     87 H87       -51.1820  -29.0704    3.3485 H         1 UNK         0.0720 
     88 H88       -50.1486  -28.9815    4.7435 H         1 UNK         0.0720 
     89 H89       -49.2055  -31.0239    5.7103 H         1 UNK         0.0814 
     90 H90       -50.0591  -32.5066    6.0510 H         1 UNK         0.0814 
     91 H91       -48.5149  -30.8619    8.0589 H         1 UNK         0.1469 
     92 H92       -51.4328  -29.7390   10.9882 H         1 UNK         0.1381 
     93 H93       -52.6945  -30.9459    7.0847 H         1 UNK         0.1206 
     94 H94       -54.3082  -30.1943    8.5879 H         1 UNK         0.0813 
     95 H95       -53.7794  -29.0276    9.7878 H         1 UNK         0.0813 
     96 H96       -56.4056  -31.3625   11.7201 H         1 UNK         0.0638 
     97 H97       -56.4159  -31.7243   10.0162 H         1 UNK         0.0638 
     98 H98       -56.2569  -29.2872    9.4623 H         1 UNK         0.0568 
     99 H99       -58.1796  -30.1499    8.4354 H         1 UNK         0.3450 
    100 H100      -59.7302  -29.9715    9.2114 H         1 UNK         0.3450 
    101 H101      -55.7477  -28.9660   12.3050 H         1 UNK         0.2987 
    102 H102      -55.4632  -25.4349   12.0449 H         1 UNK         0.0766 
    103 H103      -56.5936  -25.5025   14.2515 H         1 UNK         0.0798 
    104 H104      -57.1901  -27.1282   13.9223 H         1 UNK         0.0798 
    105 H105      -57.7454  -25.7733   12.9525 H         1 UNK         0.0798 
    106 H106      -53.7353  -26.1918   13.1440 H         1 UNK         0.3198 
    107 H107      -53.0538  -28.7313   15.4598 H         1 UNK         0.0843 
    108 H108      -51.7043  -28.0561   12.7928 H         1 UNK         0.0831 
    109 H109      -52.1706  -29.6648   13.3327 H         1 UNK         0.0831 
    110 H110      -50.9059  -28.7896   14.1838 H         1 UNK         0.0831 
    111 H111      -51.6040  -26.3936   14.6849 H         1 UNK         0.3133 
    112 H112      -52.5786  -24.0593   15.6243 H         1 UNK         0.0566 
    113 H113      -52.5359  -23.1238   17.9418 H         1 UNK         0.0814 
    114 H114      -54.0732  -23.8911   17.5800 H         1 UNK         0.0814 
    115 H115      -52.9058  -24.7175   18.5999 H         1 UNK         0.0814 
    116 H116      -50.4169  -24.2877   15.9069 H         1 UNK         0.3091 
    117 H117      -48.2761  -25.4685   18.2850 H         1 UNK         0.0702 
    118 H118      -47.1322  -27.0069   16.6939 H         1 UNK         0.0785 
    119 H119      -48.6075  -27.1464   15.7385 H         1 UNK         0.0785 
    120 H120      -48.5529  -27.7790   17.3782 H         1 UNK         0.0785 
    121 H121      -47.8203  -24.8231   15.5192 H         1 UNK         0.2998 
    122 H122      -48.1033  -21.2711   15.9108 H         1 UNK         0.0697 
    123 H123      -45.7250  -23.1024   15.2878 H         1 UNK         0.0825 
    124 H124      -45.7601  -21.8674   16.5387 H         1 UNK         0.0825 
    125 H125      -45.8656  -21.4016   14.8484 H         1 UNK         0.0825 
    126 H126      -47.5707  -22.7817   13.5889 H         1 UNK         0.3029 
    127 H127      -51.0010  -23.3795   12.6250 H         1 UNK         0.0897 
    128 H128      -50.0264  -22.3636   10.5696 H         1 UNK         0.0792 
    129 H129      -50.3056  -21.1421   11.8020 H         1 UNK         0.0792 
    130 H130      -48.6755  -21.7248   11.5021 H         1 UNK         0.0792 
    131 H131      -48.5646  -24.2571   11.4423 H         1 UNK         0.3086 
    132 H132      -48.3066  -27.3848   13.1470 H         1 UNK         0.0583 
    133 H133      -49.8923  -27.7634   11.2929 H         1 UNK         0.1020 
    134 H134      -49.1016  -26.5732   10.3068 H         1 UNK         0.1020 
    135 H135      -48.0575  -30.9516   10.5887 H         1 UNK         0.0694 
    136 H136      -49.1397  -30.1208   11.6744 H         1 UNK         0.0694 
    137 H137      -46.6986  -26.0357   11.2028 H         1 UNK         0.2989 
    138 H138      -44.5157  -24.3797   13.4792 H         1 UNK         0.1055 
    139 H139      -43.7072  -26.7449   13.4015 H         1 UNK         0.0806 
    140 H140      -42.8382  -25.7414   12.2533 H         1 UNK         0.0806 
    141 H141      -44.0978  -26.8408   11.6901 H         1 UNK         0.0806 
    142 H142      -44.5276  -24.6233   10.6255 H         1 UNK         0.3061 
    143 H143      -46.7215  -21.9173    9.9198 H         1 UNK         0.0734 
    144 H144      -44.7525  -21.0805    8.6675 H         1 UNK         0.0832 
    145 H145      -44.5286  -20.8098   10.3867 H         1 UNK         0.0832 
    146 H146      -43.6775  -22.1283    9.5950 H         1 UNK         0.0832 
    147 H147      -45.2068  -23.5419    8.1743 H         1 UNK         0.3156 
    148 H148      -46.5455  -24.9747    6.7694 H         1 UNK         0.0589 
    149 H149      -45.7914  -26.9785    8.9731 H         1 UNK         0.0808 
    150 H150      -45.5772  -27.2578    7.2470 H         1 UNK         0.0808 
    151 H151      -44.6838  -25.9808    8.0471 H         1 UNK         0.0808 
    152 H152      -48.0819  -27.1516    7.9452 H         1 UNK         0.3098 
    153 H153      -49.9875  -27.6946    6.6065 H         1 UNK         0.0720 
    154 H154      -52.1651  -27.0182    7.9664 H         1 UNK         0.0791 
    155 H155      -51.2326  -25.6315    8.5034 H         1 UNK         0.0791 
    156 H156      -50.6895  -27.2698    8.8571 H         1 UNK         0.0791 
    157 H157      -50.9570  -25.2370    5.4504 H         1 UNK         0.3028 
@<TRIPOS>BOND
     1    1    2 1    
     2    1   82 1    
     3    1   83 1    
     4    1   84 1    
     5    2    3 2    
     6    2    4 am   BACKBONE|DICT|INTERRES
     7    4    5 1    
     8    4   85 1    
     9    5    6 1    
    10    5   80 1    
    11    5   86 1    
    12    6    7 1    
    13    6   87 1    
    14    6   88 1    
    15    7    8 1    
    16    8    9 1    
    17    8   89 1    
    18    8   90 1    
    19    9   10 ar   
    20    9   14 ar   
    21   10   11 ar   
    22   10   91 1    
    23   11   12 ar   
    24   11   58 1    
    25   12   13 ar   
    26   12   92 1    
    27   13   14 ar   
    28   13   15 1    
    29   14   93 1    
    30   15   16 1    
    31   15   94 1    
    32   15   95 1    
    33   16   17 1    
    34   17   18 1    
    35   17   96 1    
    36   17   97 1    
    37   18   19 1    
    38   18   22 1    
    39   18   98 1    
    40   19   20 am   BACKBONE|DICT|INTERRES
    41   19   21 2    
    42   20   99 1    
    43   20  100 1    
    44   22   23 am   BACKBONE|DICT|INTERRES
    45   22  101 1    
    46   23   24 2    
    47   23   25 1    
    48   25   26 1    
    49   25   27 1    
    50   25  102 1    
    51   26  103 1    
    52   26  104 1    
    53   26  105 1    
    54   27   28 am   BACKBONE|DICT|INTERRES
    55   27  106 1    
    56   28   29 2    
    57   28   30 1    
    58   30   31 1    
    59   30   32 1    
    60   30  107 1    
    61   31  108 1    
    62   31  109 1    
    63   31  110 1    
    64   32   33 am   BACKBONE|DICT|INTERRES
    65   32  111 1    
    66   33   34 2    
    67   33   35 1    
    68   35   36 1    
    69   35   37 1    
    70   35  112 1    
    71   36  113 1    
    72   36  114 1    
    73   36  115 1    
    74   37   38 am   BACKBONE|DICT|INTERRES
    75   37  116 1    
    76   38   39 2    
    77   38   40 1    
    78   40   41 1    
    79   40   42 1    
    80   40  117 1    
    81   41  118 1    
    82   41  119 1    
    83   41  120 1    
    84   42   43 am   BACKBONE|DICT|INTERRES
    85   42  121 1    
    86   43   44 2    
    87   43   45 1    
    88   45   46 1    
    89   45   47 1    
    90   45  122 1    
    91   46  123 1    
    92   46  124 1    
    93   46  125 1    
    94   47   48 am   BACKBONE|DICT|INTERRES
    95   47  126 1    
    96   48   49 2    
    97   48   50 1    
    98   50   51 1    
    99   50   52 1    
   100   50  127 1    
   101   51  128 1    
   102   51  129 1    
   103   51  130 1    
   104   52   53 am   BACKBONE|DICT|INTERRES
   105   52  131 1    
   106   53   54 2    
   107   53   55 1    
   108   55   56 1    
   109   55   59 1    
   110   55  132 1    
   111   56   57 1    
   112   56  133 1    
   113   56  134 1    
   114   57   58 1    
   115   58  135 1    
   116   58  136 1    
   117   59   60 am   BACKBONE|DICT|INTERRES
   118   59  137 1    
   119   60   61 2    
   120   60   62 1    
   121   62   63 1    
   122   62   64 1    
   123   62  138 1    
   124   63  139 1    
   125   63  140 1    
   126   63  141 1    
   127   64   65 am   BACKBONE|DICT|INTERRES
   128   64  142 1    
   129   65   66 2    
   130   65   67 1    
   131   67   68 1    
   132   67   69 1    
   133   67  143 1    
   134   68  144 1    
   135   68  145 1    
   136   68  146 1    
   137   69   70 am   BACKBONE|DICT|INTERRES
   138   69  147 1    
   139   70   71 2    
   140   70   72 1    
   141   72   73 1    
   142   72   74 1    
   143   72  148 1    
   144   73  149 1    
   145   73  150 1    
   146   73  151 1    
   147   74   75 am   BACKBONE|DICT|INTERRES
   148   74  152 1    
   149   75   76 2    
   150   75   77 1    
   151   77   78 1    
   152   77   79 1    
   153   77  153 1    
   154   78  154 1    
   155   78  155 1    
   156   78  156 1    
   157   79   80 am   BACKBONE|DICT|INTERRES
   158   79  157 1    
   159   80   81 2    
@<TRIPOS>SUBSTRUCTURE
     1 UNK         1 GROUP             0       ****    0 ROOT    
