@<TRIPOS>MOLECULE
3R207
157   159    1
SMALL
USER_CHARGES


@<TRIPOS>ATOM
      1 CA        -47.2890  -34.2844    4.3127 C.3       0 UNK        -0.1975 
      2 C         -48.1383  -33.0217    4.3077 C.2       0 UNK         0.4852 
      3 O         -49.3020  -33.0686    3.9070 O.2       0 UNK        -0.5216 
      4 N         -47.5654  -31.8966    4.7461 N.am      1 UNK        -0.4461 
      5 CA        -48.1925  -30.5775    4.7890 C.3       1 UNK         0.0864 
      6 C6        -49.1429  -30.4157    6.0073 C.3       14 UNK        -0.0898 
      7 S7        -50.5225  -29.2602    5.6872 S.3       14 UNK        -0.2598 
      8 C8        -50.1517  -27.8397    6.7731 C.3       14 UNK         0.0286 
      9 C9        -50.0087  -28.2374    8.2363 C.ar      14 UNK        -0.0844 
     10 C10       -48.7802  -28.0856    8.8864 C.ar      14 UNK        -0.0881 
     11 C11       -48.6306  -28.4719   10.2209 C.ar      14 UNK        -0.0643 
     12 C12       -49.7192  -29.0195   10.9042 C.ar      14 UNK        -0.0930 
     13 C13       -50.9565  -29.1649   10.2702 C.ar      14 UNK        -0.0827 
     14 C14       -51.0982  -28.7621    8.9387 C.ar      14 UNK        -0.1249 
     15 C15       -52.1287  -29.7873   11.0170 C.3       14 UNK         0.0141 
     16 S16       -52.6019  -28.8169   12.4805 S.3       14 UNK        -0.2313 
     17 C17       -53.1765  -27.2709   11.7063 C.3       14 UNK        -0.0915 
     18 CA        -54.3748  -26.5927   12.4214 C.3       13 UNK         0.0968 
     19 C         -55.6845  -27.4256   12.3424 C.2       13 UNK         0.5732 
     20 N         -56.3127  -27.8048   13.4475 N.am      13 UNK        -0.7310 
     21 O         -56.1587  -27.7135   11.2458 O.2       13 UNK        -0.5035 
     22 N         -54.0044  -26.1255   13.7650 N.am      13 UNK        -0.4233 
     23 C         -54.3974  -24.9637   14.2986 C.2       13 UNK         0.4989 
     24 O         -55.2185  -24.2068   13.7760 O.2       13 UNK        -0.4996 
     25 CA        -53.7227  -24.5763   15.6248 C.3       12 UNK         0.0216 
     26 CB        -53.8686  -23.0783   15.9746 C.3       12 UNK        -0.1964 
     27 N         -54.1470  -25.4400   16.7282 N.am      12 UNK        -0.4276 
     28 C         -55.3357  -25.4903   17.3460 C.2       12 UNK         0.5020 
     29 O         -56.2890  -24.7539   17.0875 O.2       12 UNK        -0.5489 
     30 CA        -55.4586  -26.5492   18.4628 C.3       11 UNK         0.0294 
     31 CB        -56.9141  -26.7864   18.9214 C.3       11 UNK        -0.2019 
     32 N         -54.7950  -27.8140   18.1178 N.am      11 UNK        -0.4493 
     33 C         -55.1020  -28.6263   17.0941 C.2       11 UNK         0.4932 
     34 O         -56.0577  -28.4436   16.3397 O.2       11 UNK        -0.5029 
     35 CA        -54.1498  -29.8184   16.8537 C.3       10 UNK         0.0280 
     36 CB        -54.3729  -30.4813   15.4791 C.3       10 UNK        -0.1976 
     37 N         -52.7298  -29.4777   17.0317 N.am      10 UNK        -0.4242 
     38 C         -52.0626  -28.4745   16.4418 C.2       10 UNK         0.5072 
     39 O         -52.5589  -27.6831   15.6395 O.2       10 UNK        -0.5224 
     40 CA        -50.6003  -28.2760   16.8659 C.3       9 UNK         0.0343 
     41 CB        -49.6603  -28.5527   15.6806 C.3       9 UNK        -0.2003 
     42 N         -50.3633  -26.9150   17.3537 N.am      9 UNK        -0.4272 
     43 C         -51.0273  -26.2860   18.3325 C.2       9 UNK         0.4988 
     44 O         -51.9265  -26.8068   18.9947 O.2       9 UNK        -0.5108 
     45 CA        -50.6534  -24.8180   18.6125 C.3       8 UNK         0.0248 
     46 CB        -49.3934  -24.7270   19.4950 C.3       8 UNK        -0.2001 
     47 N         -50.5413  -23.9645   17.4174 N.am      8 UNK        -0.4140 
     48 C         -49.6589  -24.0385   16.4108 C.2       8 UNK         0.5028 
     49 O         -48.7529  -24.8743   16.3432 O.2       8 UNK        -0.5428 
     50 CA        -49.8082  -22.9847   15.3009 C.3       7 UNK         0.0264 
     51 CB        -49.1197  -21.6718   15.7086 C.3       7 UNK        -0.1988 
     52 N         -49.2213  -23.4598   14.0477 N.am      7 UNK        -0.4454 
     53 C         -49.7922  -24.3599   13.2374 C.2       7 UNK         0.5027 
     54 O         -50.9288  -24.8085   13.3998 O.2       7 UNK        -0.5083 
     55 CA        -48.9200  -24.8667   12.0727 C.3       6 UNK         0.0844 
     56 C56       -48.1232  -26.1225   12.5012 C.3       14 UNK        -0.0967 
     57 S57       -46.8716  -26.5844   11.2554 S.3       14 UNK        -0.2604 
     58 C58       -47.2850  -28.3238   10.9145 C.3       14 UNK         0.0134 
     59 N         -49.7271  -25.1003   10.8718 N.am      6 UNK        -0.4116 
     60 C         -50.2565  -24.1242   10.1243 C.2       5 UNK         0.5034 
     61 O         -50.1055  -22.9209   10.3532 O.2       5 UNK        -0.5045 
     62 CA        -51.1151  -24.5547    8.9230 C.3       5 UNK         0.0224 
     63 CB        -52.6114  -24.4144    9.2469 C.3       5 UNK        -0.1978 
     64 N         -50.8159  -23.7440    7.7414 N.am      5 UNK        -0.4737 
     65 C         -49.6732  -23.8020    7.0498 C.2       4 UNK         0.5027 
     66 O         -48.7734  -24.6169    7.2684 O.2       4 UNK        -0.5211 
     67 CA        -49.5052  -22.7626    5.9360 C.3       4 UNK         0.0297 
     68 CB        -49.1162  -21.3884    6.5112 C.3       4 UNK        -0.1993 
     69 N         -48.4669  -23.2288    5.0254 N.am      4 UNK        -0.4486 
     70 C         -48.3818  -22.9484    3.7208 C.2       3 UNK         0.4961 
     71 O         -49.1503  -22.1831    3.1367 O.2       3 UNK        -0.5105 
     72 CA        -47.2526  -23.6288    2.9197 C.3       3 UNK         0.0299 
     73 CB        -46.1176  -22.6287    2.6429 C.3       3 UNK        -0.1972 
     74 N         -46.6892  -24.8272    3.5545 N.am      3 UNK        -0.4305 
     75 C         -47.3524  -25.9734    3.7571 C.2       2 UNK         0.5006 
     76 O         -48.5292  -26.1543    3.4297 O.2       2 UNK        -0.5106 
     77 CA        -46.5745  -27.0985    4.4537 C.3       2 UNK         0.0296 
     78 CB        -46.1344  -26.6902    5.8762 C.3       2 UNK        -0.2002 
     79 N         -47.4376  -28.2740    4.5027 N.am      2 UNK        -0.4032 
     80 C         -47.0695  -29.5259    4.7825 C.2       1 UNK         0.5000 
     81 O         -45.9081  -29.8637    5.0368 O.2       1 UNK        -0.5238 
     82 H82       -47.2001  -34.6811    3.3017 H         1 UNK         0.0889 
     83 H83       -47.7532  -35.0460    4.9387 H         1 UNK         0.0889 
     84 H84       -46.2849  -34.0984    4.6937 H         1 UNK         0.0889 
     85 H85       -46.5890  -31.8807    5.0189 H         1 UNK         0.3028 
     86 H86       -48.7580  -30.4557    3.8620 H         1 UNK         0.0864 
     87 H87       -48.5932  -30.1395    6.9081 H         1 UNK         0.0720 
     88 H88       -49.6116  -31.3715    6.2456 H         1 UNK         0.0720 
     89 H89       -50.9574  -27.1102    6.6802 H         1 UNK         0.0814 
     90 H90       -49.2523  -27.3369    6.4177 H         1 UNK         0.0814 
     91 H91       -47.9339  -27.6713    8.3559 H         1 UNK         0.1469 
     92 H92       -49.6086  -29.3348   11.9329 H         1 UNK         0.1381 
     93 H93       -52.0487  -28.8803    8.4363 H         1 UNK         0.1206 
     94 H94       -51.8517  -30.7928   11.3364 H         1 UNK         0.0813 
     95 H95       -52.9967  -29.9003   10.3656 H         1 UNK         0.0813 
     96 H96       -53.4256  -27.4586   10.6605 H         1 UNK         0.0638 
     97 H97       -52.3250  -26.5898   11.6908 H         1 UNK         0.0638 
     98 H98       -54.5942  -25.7047   11.8259 H         1 UNK         0.0568 
     99 H99       -55.9323  -27.6218   14.3665 H         1 UNK         0.3450 
    100 H100      -57.1642  -28.3353   13.3650 H         1 UNK         0.3450 
    101 H101      -53.3661  -26.7233   14.2883 H         1 UNK         0.2987 
    102 H102      -52.6577  -24.7713   15.4925 H         1 UNK         0.0766 
    103 H103      -53.3742  -22.8353   16.9142 H         1 UNK         0.0798 
    104 H104      -54.9129  -22.7775   16.0625 H         1 UNK         0.0798 
    105 H105      -53.4232  -22.4565   15.1973 H         1 UNK         0.0798 
    106 H106      -53.4911  -26.1784   16.9535 H         1 UNK         0.3198 
    107 H107      -54.9107  -26.1453   19.3159 H         1 UNK         0.0843 
    108 H108      -57.5491  -27.1248   18.1021 H         1 UNK         0.0831 
    109 H109      -57.3538  -25.8675   19.3111 H         1 UNK         0.0831 
    110 H110      -56.9645  -27.5307   19.7158 H         1 UNK         0.0831 
    111 H111      -53.9597  -28.0222   18.6520 H         1 UNK         0.3133 
    112 H112      -54.3872  -30.5577   17.6198 H         1 UNK         0.0566 
    113 H113      -53.6821  -31.3079   15.3147 H         1 UNK         0.0814 
    114 H114      -55.3843  -30.8809   15.3964 H         1 UNK         0.0814 
    115 H115      -54.2422  -29.7669   14.6671 H         1 UNK         0.0814 
    116 H116      -52.2296  -30.0479   17.7001 H         1 UNK         0.3091 
    117 H117      -50.3589  -28.9667   17.6759 H         1 UNK         0.0702 
    118 H118      -48.6139  -28.4501   15.9685 H         1 UNK         0.0785 
    119 H119      -49.8496  -27.8670   14.8530 H         1 UNK         0.0785 
    120 H120      -49.7968  -29.5661   15.3006 H         1 UNK         0.0785 
    121 H121      -49.6590  -26.3677   16.8624 H         1 UNK         0.2998 
    122 H122      -51.4797  -24.3978   19.1886 H         1 UNK         0.0697 
    123 H123      -48.5130  -25.1344   18.9972 H         1 UNK         0.0825 
    124 H124      -49.5273  -25.2863   20.4220 H         1 UNK         0.0825 
    125 H125      -49.1751  -23.6948   19.7688 H         1 UNK         0.0825 
    126 H126      -51.2326  -23.2297   17.3685 H         1 UNK         0.3029 
    127 H127      -50.8703  -22.7906   15.1371 H         1 UNK         0.0897 
    128 H128      -48.0544  -21.8150   15.8952 H         1 UNK         0.0792 
    129 H129      -49.5572  -21.2646   16.6212 H         1 UNK         0.0792 
    130 H130      -49.2257  -20.9113   14.9347 H         1 UNK         0.0792 
    131 H131      -48.2684  -23.1789   13.8668 H         1 UNK         0.3086 
    132 H132      -48.2000  -24.0808   11.8324 H         1 UNK         0.0583 
    133 H133      -47.5944  -25.9421   13.4397 H         1 UNK         0.1020 
    134 H134      -48.7981  -26.9573   12.6967 H         1 UNK         0.1020 
    135 H135      -46.5076  -28.7510   10.2795 H         1 UNK         0.0694 
    136 H136      -47.2607  -28.8888   11.8478 H         1 UNK         0.0694 
    137 H137      -49.8923  -26.0663   10.6287 H         1 UNK         0.2989 
    138 H138      -50.9009  -25.5994    8.6928 H         1 UNK         0.1055 
    139 H139      -52.8703  -24.9508   10.1573 H         1 UNK         0.0806 
    140 H140      -53.2310  -24.8173    8.4455 H         1 UNK         0.0806 
    141 H141      -52.8946  -23.3724    9.4015 H         1 UNK         0.0806 
    142 H142      -51.4816  -23.0190    7.5157 H         1 UNK         0.3061 
    143 H143      -50.4520  -22.6829    5.3970 H         1 UNK         0.0734 
    144 H144      -49.8763  -21.0202    7.2013 H         1 UNK         0.0832 
    145 H145      -48.1742  -21.4354    7.0590 H         1 UNK         0.0832 
    146 H146      -49.0082  -20.6435    5.7226 H         1 UNK         0.0832 
    147 H147      -47.8421  -23.9139    5.4322 H         1 UNK         0.3156 
    148 H148      -47.6782  -23.9323    1.9609 H         1 UNK         0.0589 
    149 H149      -45.6360  -22.2993    3.5645 H         1 UNK         0.0808 
    150 H150      -45.3527  -23.0622    1.9983 H         1 UNK         0.0808 
    151 H151      -46.4957  -21.7385    2.1379 H         1 UNK         0.0808 
    152 H152      -45.7259  -24.7662    3.8526 H         1 UNK         0.3098 
    153 H153      -45.6966  -27.3321    3.8478 H         1 UNK         0.0720 
    154 H154      -46.9864  -26.4195    6.4987 H         1 UNK         0.0791 
    155 H155      -45.4612  -25.8329    5.8564 H         1 UNK         0.0791 
    156 H156      -45.6003  -27.4959    6.3797 H         1 UNK         0.0791 
    157 H157      -48.4008  -28.0742    4.2547 H         1 UNK         0.3028 
@<TRIPOS>BOND
     1    1    2 1    
     2    1   82 1    
     3    1   83 1    
     4    1   84 1    
     5    2    3 2    
     6    2    4 am   BACKBONE|DICT|INTERRES
     7    4    5 1    
     8    4   85 1    
     9    5    6 1    
    10    5   80 1    
    11    5   86 1    
    12    6    7 1    
    13    6   87 1    
    14    6   88 1    
    15    7    8 1    
    16    8    9 1    
    17    8   89 1    
    18    8   90 1    
    19    9   10 ar   
    20    9   14 ar   
    21   10   11 ar   
    22   10   91 1    
    23   11   12 ar   
    24   11   58 1    
    25   12   13 ar   
    26   12   92 1    
    27   13   14 ar   
    28   13   15 1    
    29   14   93 1    
    30   15   16 1    
    31   15   94 1    
    32   15   95 1    
    33   16   17 1    
    34   17   18 1    
    35   17   96 1    
    36   17   97 1    
    37   18   19 1    
    38   18   22 1    
    39   18   98 1    
    40   19   20 am   BACKBONE|DICT|INTERRES
    41   19   21 2    
    42   20   99 1    
    43   20  100 1    
    44   22   23 am   BACKBONE|DICT|INTERRES
    45   22  101 1    
    46   23   24 2    
    47   23   25 1    
    48   25   26 1    
    49   25   27 1    
    50   25  102 1    
    51   26  103 1    
    52   26  104 1    
    53   26  105 1    
    54   27   28 am   BACKBONE|DICT|INTERRES
    55   27  106 1    
    56   28   29 2    
    57   28   30 1    
    58   30   31 1    
    59   30   32 1    
    60   30  107 1    
    61   31  108 1    
    62   31  109 1    
    63   31  110 1    
    64   32   33 am   BACKBONE|DICT|INTERRES
    65   32  111 1    
    66   33   34 2    
    67   33   35 1    
    68   35   36 1    
    69   35   37 1    
    70   35  112 1    
    71   36  113 1    
    72   36  114 1    
    73   36  115 1    
    74   37   38 am   BACKBONE|DICT|INTERRES
    75   37  116 1    
    76   38   39 2    
    77   38   40 1    
    78   40   41 1    
    79   40   42 1    
    80   40  117 1    
    81   41  118 1    
    82   41  119 1    
    83   41  120 1    
    84   42   43 am   BACKBONE|DICT|INTERRES
    85   42  121 1    
    86   43   44 2    
    87   43   45 1    
    88   45   46 1    
    89   45   47 1    
    90   45  122 1    
    91   46  123 1    
    92   46  124 1    
    93   46  125 1    
    94   47   48 am   BACKBONE|DICT|INTERRES
    95   47  126 1    
    96   48   49 2    
    97   48   50 1    
    98   50   51 1    
    99   50   52 1    
   100   50  127 1    
   101   51  128 1    
   102   51  129 1    
   103   51  130 1    
   104   52   53 am   BACKBONE|DICT|INTERRES
   105   52  131 1    
   106   53   54 2    
   107   53   55 1    
   108   55   56 1    
   109   55   59 1    
   110   55  132 1    
   111   56   57 1    
   112   56  133 1    
   113   56  134 1    
   114   57   58 1    
   115   58  135 1    
   116   58  136 1    
   117   59   60 am   BACKBONE|DICT|INTERRES
   118   59  137 1    
   119   60   61 2    
   120   60   62 1    
   121   62   63 1    
   122   62   64 1    
   123   62  138 1    
   124   63  139 1    
   125   63  140 1    
   126   63  141 1    
   127   64   65 am   BACKBONE|DICT|INTERRES
   128   64  142 1    
   129   65   66 2    
   130   65   67 1    
   131   67   68 1    
   132   67   69 1    
   133   67  143 1    
   134   68  144 1    
   135   68  145 1    
   136   68  146 1    
   137   69   70 am   BACKBONE|DICT|INTERRES
   138   69  147 1    
   139   70   71 2    
   140   70   72 1    
   141   72   73 1    
   142   72   74 1    
   143   72  148 1    
   144   73  149 1    
   145   73  150 1    
   146   73  151 1    
   147   74   75 am   BACKBONE|DICT|INTERRES
   148   74  152 1    
   149   75   76 2    
   150   75   77 1    
   151   77   78 1    
   152   77   79 1    
   153   77  153 1    
   154   78  154 1    
   155   78  155 1    
   156   78  156 1    
   157   79   80 am   BACKBONE|DICT|INTERRES
   158   79  157 1    
   159   80   81 2    
@<TRIPOS>SUBSTRUCTURE
     1 UNK         1 GROUP             0       ****    0 ROOT    
