@<TRIPOS>MOLECULE
3R207
157   159    1
SMALL
USER_CHARGES


@<TRIPOS>ATOM
      1 CA        -50.2359  -29.3251    9.0406 C.3       0 UNK        -0.1975 
      2 C         -49.5761  -29.4644    7.6769 C.2       0 UNK         0.4852 
      3 O         -48.4840  -30.0242    7.5816 O.2       0 UNK        -0.5216 
      4 N         -50.2262  -28.9560    6.6209 N.am      1 UNK        -0.4461 
      5 CA        -49.7425  -28.9980    5.2317 C.3       1 UNK         0.0864 
      6 C6        -50.8760  -28.7022    4.2173 C.3       14 UNK        -0.0898 
      7 S7        -52.1766  -29.9801    4.2197 S.3       14 UNK        -0.2598 
      8 C8        -53.6594  -29.0154    4.6478 C.3       14 UNK         0.0286 
      9 C9        -53.7400  -28.7427    6.1413 C.ar      14 UNK        -0.0844 
     10 C10       -53.3703  -27.4987    6.6616 C.ar      14 UNK        -0.0881 
     11 C11       -53.4501  -27.2555    8.0367 C.ar      14 UNK        -0.0643 
     12 C12       -53.9309  -28.2560    8.8867 C.ar      14 UNK        -0.0930 
     13 C13       -54.3027  -29.5034    8.3765 C.ar      14 UNK        -0.0827 
     14 C14       -54.2017  -29.7410    7.0036 C.ar      14 UNK        -0.1249 
     15 C15       -54.8369  -30.5839    9.3036 C.3       14 UNK         0.0141 
     16 S16       -53.5851  -31.1258   10.5106 S.3       14 UNK        -0.2313 
     17 C17       -54.5881  -32.2505   11.5448 C.3       14 UNK        -0.0915 
     18 CA        -55.0771  -31.6195   12.8779 C.3       13 UNK         0.0968 
     19 C         -53.9457  -31.5092   13.9430 C.2       13 UNK         0.5732 
     20 N         -53.6252  -30.3318   14.4678 N.am      13 UNK        -0.7310 
     21 O         -53.3600  -32.5220   14.3189 O.2       13 UNK        -0.5035 
     22 N         -55.8171  -30.3729   12.6409 N.am      13 UNK        -0.4233 
     23 C         -56.7521  -29.8667   13.4485 C.2       13 UNK         0.4989 
     24 O         -57.1881  -30.4327   14.4533 O.2       13 UNK        -0.4996 
     25 CA        -57.2760  -28.4707   13.0740 C.3       12 UNK         0.0216 
     26 CB        -58.7886  -28.5028   12.7972 C.3       12 UNK        -0.1964 
     27 N         -56.9901  -27.4978   14.1296 N.am      12 UNK        -0.4276 
     28 C         -55.7621  -27.1462   14.5309 C.2       12 UNK         0.5020 
     29 O         -54.7183  -27.5802   14.0305 O.2       12 UNK        -0.5489 
     30 CA        -55.6880  -26.1641   15.7035 C.3       11 UNK         0.0294 
     31 CB        -55.8889  -26.9011   17.0420 C.3       11 UNK        -0.2019 
     32 N         -54.3792  -25.5223   15.6733 N.am      11 UNK        -0.4493 
     33 C         -54.0253  -24.4073   16.3213 C.2       11 UNK         0.4932 
     34 O         -54.8063  -23.7530   17.0146 O.2       11 UNK        -0.5029 
     35 CA        -52.5661  -23.9274   16.1596 C.3       10 UNK         0.0280 
     36 CB        -52.0392  -23.2124   17.4216 C.3       10 UNK        -0.1976 
     37 N         -51.6258  -24.9702   15.7269 N.am      10 UNK        -0.4242 
     38 C         -51.3129  -26.1083   16.3673 C.2       10 UNK         0.5072 
     39 O         -51.8005  -26.4608   17.4420 O.2       10 UNK        -0.5224 
     40 CA        -50.2711  -27.0084   15.6840 C.3       9 UNK         0.0343 
     41 CB        -50.8774  -27.7101   14.4571 C.3       9 UNK        -0.2003 
     42 N         -49.0691  -26.2719   15.2896 N.am      9 UNK        -0.4272 
     43 C         -48.2031  -25.7076   16.1445 C.2       9 UNK         0.4988 
     44 O         -48.2793  -25.8094   17.3697 O.2       9 UNK        -0.5108 
     45 CA        -47.0579  -24.8830   15.5331 C.3       8 UNK         0.0248 
     46 CB        -45.9072  -25.7981   15.0843 C.3       8 UNK        -0.2001 
     47 N         -47.4978  -24.0444   14.4146 N.am      8 UNK        -0.4140 
     48 C         -48.3323  -23.0007   14.5355 C.2       8 UNK         0.5028 
     49 O         -48.7612  -22.5873   15.6130 O.2       8 UNK        -0.5428 
     50 CA        -48.7805  -22.3028   13.2399 C.3       7 UNK         0.0264 
     51 CB        -47.7330  -21.2720   12.7905 C.3       7 UNK        -0.1988 
     52 N         -49.0632  -23.2365   12.1456 N.am      7 UNK        -0.4454 
     53 C         -50.0495  -24.1470   12.1610 C.2       7 UNK         0.5027 
     54 O         -50.8525  -24.2656   13.0874 O.2       7 UNK        -0.5083 
     55 CA        -50.1289  -25.1264   10.9723 C.3       6 UNK         0.0844 
     56 C56       -50.8547  -24.4913    9.7620 C.3       14 UNK        -0.0967 
     57 S57       -51.2004  -25.7334    8.4707 S.3       14 UNK        -0.2604 
     58 C58       -53.0034  -25.9199    8.6088 C.3       14 UNK         0.0134 
     59 N         -48.8087  -25.6518   10.6162 N.am      6 UNK        -0.4116 
     60 C         -48.0273  -26.3827   11.4222 C.2       5 UNK         0.5034 
     61 O         -48.3517  -26.7471   12.5513 O.2       5 UNK        -0.5045 
     62 CA        -46.6215  -26.7137   10.9025 C.3       5 UNK         0.0224 
     63 CB        -46.6550  -27.9001    9.9258 C.3       5 UNK        -0.1978 
     64 N         -45.9894  -25.5548   10.2674 N.am      5 UNK        -0.4737 
     65 C         -45.5855  -24.4620   10.9306 C.2       4 UNK         0.5027 
     66 O         -45.6765  -24.3317   12.1500 O.2       4 UNK        -0.5211 
     67 CA        -45.0147  -23.3073   10.0911 C.3       4 UNK         0.0297 
     68 CB        -43.5263  -23.5431    9.7902 C.3       4 UNK        -0.1993 
     69 N         -45.7441  -23.0990    8.8384 N.am      4 UNK        -0.4486 
     70 C         -47.0177  -22.6879    8.7638 C.2       3 UNK         0.4961 
     71 O         -47.7128  -22.4170    9.7422 O.2       3 UNK        -0.5105 
     72 CA        -47.6389  -22.6230    7.3586 C.3       3 UNK         0.0299 
     73 CB        -47.2468  -21.3156    6.6521 C.3       3 UNK        -0.1972 
     74 N         -47.3037  -23.7702    6.5053 N.am      3 UNK        -0.4305 
     75 C         -47.5470  -25.0485    6.8233 C.2       2 UNK         0.5006 
     76 O         -47.9919  -25.4154    7.9119 O.2       2 UNK        -0.5106 
     77 CA        -47.2191  -26.1077    5.7734 C.3       2 UNK         0.0296 
     78 CB        -45.8226  -26.7081    6.0228 C.3       2 UNK        -0.2002 
     79 N         -48.2511  -27.1333    5.8765 N.am      2 UNK        -0.4032 
     80 C         -48.5381  -28.0652    4.9614 C.2       1 UNK         0.5000 
     81 O         -47.9041  -28.1979    3.9122 O.2       1 UNK        -0.5238 
     82 H82       -51.2767  -29.0200    8.9542 H         1 UNK         0.0889 
     83 H83       -49.7133  -28.5799    9.6393 H         1 UNK         0.0889 
     84 H84       -50.2103  -30.2750    9.5736 H         1 UNK         0.0889 
     85 H85       -51.1368  -28.5366    6.7554 H         1 UNK         0.3028 
     86 H86       -49.3824  -30.0118    5.0428 H         1 UNK         0.0864 
     87 H87       -51.3096  -27.7185    4.4043 H         1 UNK         0.0720 
     88 H88       -50.4832  -28.6661    3.1990 H         1 UNK         0.0720 
     89 H89       -54.5419  -29.5770    4.3375 H         1 UNK         0.0814 
     90 H90       -53.6800  -28.0861    4.0762 H         1 UNK         0.0814 
     91 H91       -53.0089  -26.7206    6.0029 H         1 UNK         0.1469 
     92 H92       -53.9995  -28.0726    9.9504 H         1 UNK         0.1381 
     93 H93       -54.4880  -30.7028    6.5998 H         1 UNK         0.1206 
     94 H94       -55.7161  -30.1999    9.8212 H         1 UNK         0.0813 
     95 H95       -55.1724  -31.4510    8.7322 H         1 UNK         0.0813 
     96 H96       -54.0041  -33.1527   11.7354 H         1 UNK         0.0638 
     97 H97       -55.4504  -32.5872   10.9674 H         1 UNK         0.0638 
     98 H98       -55.7852  -32.3310   13.3071 H         1 UNK         0.0568 
     99 H99       -52.9004  -30.2962   15.1648 H         1 UNK         0.3450 
    100 H100      -54.0895  -29.4775   14.1784 H         1 UNK         0.3450 
    101 H101      -55.4738  -29.8105   11.8776 H         1 UNK         0.2987 
    102 H102      -56.7737  -28.1312   12.1653 H         1 UNK         0.0766 
    103 H103      -59.1553  -27.5274   12.4767 H         1 UNK         0.0798 
    104 H104      -59.3561  -28.8023   13.6794 H         1 UNK         0.0798 
    105 H105      -59.0238  -29.2127   12.0030 H         1 UNK         0.0798 
    106 H106      -57.7876  -27.1211   14.6217 H         1 UNK         0.3198 
    107 H107      -56.4609  -25.4032   15.5756 H         1 UNK         0.0843 
    108 H108      -55.1120  -27.6492   17.2062 H         1 UNK         0.0831 
    109 H109      -56.8498  -27.4162   17.0699 H         1 UNK         0.0831 
    110 H110      -55.8702  -26.2113   17.8858 H         1 UNK         0.0831 
    111 H111      -53.7062  -25.9973   15.0831 H         1 UNK         0.3133 
    112 H112      -52.5815  -23.1950   15.3514 H         1 UNK         0.0566 
    113 H113      -51.0150  -22.8664   17.2814 H         1 UNK         0.0814 
    114 H114      -52.6447  -22.3375   17.6607 H         1 UNK         0.0814 
    115 H115      -52.0552  -23.8674   18.2932 H         1 UNK         0.0814 
    116 H116      -51.1914  -24.7965   14.8212 H         1 UNK         0.3091 
    117 H117      -49.9731  -27.7766   16.4006 H         1 UNK         0.0702 
    118 H118      -50.1879  -28.4442   14.0399 H         1 UNK         0.0785 
    119 H119      -51.1285  -27.0037   13.6654 H         1 UNK         0.0785 
    120 H120      -51.7936  -28.2370   14.7228 H         1 UNK         0.0785 
    121 H121      -48.8817  -26.2079   14.2920 H         1 UNK         0.2998 
    122 H122      -46.6754  -24.2207   16.3126 H         1 UNK         0.0697 
    123 H123      -46.2123  -26.4672   14.2795 H         1 UNK         0.0825 
    124 H124      -45.5567  -26.4185   15.9101 H         1 UNK         0.0825 
    125 H125      -45.0548  -25.2177   14.7308 H         1 UNK         0.0825 
    126 H126      -47.1176  -24.2674   13.4989 H         1 UNK         0.3029 
    127 H127      -49.7067  -21.7683   13.4623 H         1 UNK         0.0897 
    128 H128      -48.0830  -20.7007   11.9305 H         1 UNK         0.0792 
    129 H129      -47.5186  -20.5588   13.5876 H         1 UNK         0.0792 
    130 H130      -46.7913  -21.7477   12.5149 H         1 UNK         0.0792 
    131 H131      -48.4762  -23.1555   11.3179 H         1 UNK         0.3086 
    132 H132      -50.7268  -25.9764   11.3088 H         1 UNK         0.0583 
    133 H133      -51.7893  -24.0187   10.0703 H         1 UNK         0.1020 
    134 H134      -50.2464  -23.6982    9.3231 H         1 UNK         0.1020 
    135 H135      -53.2999  -25.8396    9.6559 H         1 UNK         0.0694 
    136 H136      -53.4962  -25.1035    8.0791 H         1 UNK         0.0694 
    137 H137      -48.4778  -25.4418    9.6762 H         1 UNK         0.2989 
    138 H138      -46.0126  -27.0012   11.7627 H         1 UNK         0.1055 
    139 H139      -47.0932  -28.7804   10.3980 H         1 UNK         0.0806 
    140 H140      -45.6517  -28.1751    9.6005 H         1 UNK         0.0806 
    141 H141      -47.2469  -27.6839    9.0366 H         1 UNK         0.0806 
    142 H142      -45.9500  -25.5508    9.2585 H         1 UNK         0.3061 
    143 H143      -45.1013  -22.3943   10.6842 H         1 UNK         0.0734 
    144 H144      -43.0866  -22.6924    9.2691 H         1 UNK         0.0832 
    145 H145      -42.9610  -23.6823   10.7129 H         1 UNK         0.0832 
    146 H146      -43.3710  -24.4314    9.1766 H         1 UNK         0.0832 
    147 H147      -45.2560  -23.3057    7.9792 H         1 UNK         0.3156 
    148 H148      -48.7235  -22.6247    7.4852 H         1 UNK         0.0589 
    149 H149      -46.1762  -21.2682    6.4493 H         1 UNK         0.0808 
    150 H150      -47.7740  -21.2024    5.7046 H         1 UNK         0.0808 
    151 H151      -47.5006  -20.4499    7.2658 H         1 UNK         0.0808 
    152 H152      -46.9206  -23.5601    5.5944 H         1 UNK         0.3098 
    153 H153      -47.2601  -25.6571    4.7796 H         1 UNK         0.0720 
    154 H154      -45.5664  -27.4491    5.2656 H         1 UNK         0.0791 
    155 H155      -45.7615  -27.1945    6.9969 H         1 UNK         0.0791 
    156 H156      -45.0521  -25.9368    5.9913 H         1 UNK         0.0791 
    157 H157      -48.8182  -27.0662    6.7133 H         1 UNK         0.3028 
@<TRIPOS>BOND
     1    1    2 1    
     2    1   82 1    
     3    1   83 1    
     4    1   84 1    
     5    2    3 2    
     6    2    4 am   BACKBONE|DICT|INTERRES
     7    4    5 1    
     8    4   85 1    
     9    5    6 1    
    10    5   80 1    
    11    5   86 1    
    12    6    7 1    
    13    6   87 1    
    14    6   88 1    
    15    7    8 1    
    16    8    9 1    
    17    8   89 1    
    18    8   90 1    
    19    9   10 ar   
    20    9   14 ar   
    21   10   11 ar   
    22   10   91 1    
    23   11   12 ar   
    24   11   58 1    
    25   12   13 ar   
    26   12   92 1    
    27   13   14 ar   
    28   13   15 1    
    29   14   93 1    
    30   15   16 1    
    31   15   94 1    
    32   15   95 1    
    33   16   17 1    
    34   17   18 1    
    35   17   96 1    
    36   17   97 1    
    37   18   19 1    
    38   18   22 1    
    39   18   98 1    
    40   19   20 am   BACKBONE|DICT|INTERRES
    41   19   21 2    
    42   20   99 1    
    43   20  100 1    
    44   22   23 am   BACKBONE|DICT|INTERRES
    45   22  101 1    
    46   23   24 2    
    47   23   25 1    
    48   25   26 1    
    49   25   27 1    
    50   25  102 1    
    51   26  103 1    
    52   26  104 1    
    53   26  105 1    
    54   27   28 am   BACKBONE|DICT|INTERRES
    55   27  106 1    
    56   28   29 2    
    57   28   30 1    
    58   30   31 1    
    59   30   32 1    
    60   30  107 1    
    61   31  108 1    
    62   31  109 1    
    63   31  110 1    
    64   32   33 am   BACKBONE|DICT|INTERRES
    65   32  111 1    
    66   33   34 2    
    67   33   35 1    
    68   35   36 1    
    69   35   37 1    
    70   35  112 1    
    71   36  113 1    
    72   36  114 1    
    73   36  115 1    
    74   37   38 am   BACKBONE|DICT|INTERRES
    75   37  116 1    
    76   38   39 2    
    77   38   40 1    
    78   40   41 1    
    79   40   42 1    
    80   40  117 1    
    81   41  118 1    
    82   41  119 1    
    83   41  120 1    
    84   42   43 am   BACKBONE|DICT|INTERRES
    85   42  121 1    
    86   43   44 2    
    87   43   45 1    
    88   45   46 1    
    89   45   47 1    
    90   45  122 1    
    91   46  123 1    
    92   46  124 1    
    93   46  125 1    
    94   47   48 am   BACKBONE|DICT|INTERRES
    95   47  126 1    
    96   48   49 2    
    97   48   50 1    
    98   50   51 1    
    99   50   52 1    
   100   50  127 1    
   101   51  128 1    
   102   51  129 1    
   103   51  130 1    
   104   52   53 am   BACKBONE|DICT|INTERRES
   105   52  131 1    
   106   53   54 2    
   107   53   55 1    
   108   55   56 1    
   109   55   59 1    
   110   55  132 1    
   111   56   57 1    
   112   56  133 1    
   113   56  134 1    
   114   57   58 1    
   115   58  135 1    
   116   58  136 1    
   117   59   60 am   BACKBONE|DICT|INTERRES
   118   59  137 1    
   119   60   61 2    
   120   60   62 1    
   121   62   63 1    
   122   62   64 1    
   123   62  138 1    
   124   63  139 1    
   125   63  140 1    
   126   63  141 1    
   127   64   65 am   BACKBONE|DICT|INTERRES
   128   64  142 1    
   129   65   66 2    
   130   65   67 1    
   131   67   68 1    
   132   67   69 1    
   133   67  143 1    
   134   68  144 1    
   135   68  145 1    
   136   68  146 1    
   137   69   70 am   BACKBONE|DICT|INTERRES
   138   69  147 1    
   139   70   71 2    
   140   70   72 1    
   141   72   73 1    
   142   72   74 1    
   143   72  148 1    
   144   73  149 1    
   145   73  150 1    
   146   73  151 1    
   147   74   75 am   BACKBONE|DICT|INTERRES
   148   74  152 1    
   149   75   76 2    
   150   75   77 1    
   151   77   78 1    
   152   77   79 1    
   153   77  153 1    
   154   78  154 1    
   155   78  155 1    
   156   78  156 1    
   157   79   80 am   BACKBONE|DICT|INTERRES
   158   79  157 1    
   159   80   81 2    
@<TRIPOS>SUBSTRUCTURE
     1 UNK         1 GROUP             0       ****    0 ROOT    
