@<TRIPOS>MOLECULE
3R207
157   159    1
SMALL
USER_CHARGES


@<TRIPOS>ATOM
      1 CA        -51.5744  -30.8974    6.7159 C.3       0 UNK        -0.1975 
      2 C         -50.9434  -29.9286    5.7275 C.2       0 UNK         0.4852 
      3 O         -50.1914  -30.3489    4.8480 O.2       0 UNK        -0.5216 
      4 N         -51.2446  -28.6317    5.8692 N.am      1 UNK        -0.4461 
      5 CA        -50.7842  -27.5458    4.9916 C.3       1 UNK         0.0864 
      6 C6        -51.6426  -26.2621    5.1531 C.3       14 UNK        -0.0898 
      7 S7        -53.4378  -26.5447    4.9508 S.3       14 UNK        -0.2598 
      8 C8        -54.1054  -26.0375    6.5714 C.3       14 UNK         0.0286 
      9 C9        -53.9838  -27.1426    7.6117 C.ar      14 UNK        -0.0844 
     10 C10       -52.7896  -27.3185    8.3155 C.ar      14 UNK        -0.0881 
     11 C11       -52.6511  -28.3510    9.2529 C.ar      14 UNK        -0.0643 
     12 C12       -53.7498  -29.1728    9.5121 C.ar      14 UNK        -0.0930 
     13 C13       -54.9610  -28.9910    8.8404 C.ar      14 UNK        -0.0827 
     14 C14       -55.0695  -27.9816    7.8804 C.ar      14 UNK        -0.1249 
     15 C15       -56.1464  -29.8835    9.1698 C.3       14 UNK         0.0141 
     16 S16       -57.0100  -29.2628   10.6456 S.3       14 UNK        -0.2313 
     17 C17       -57.6326  -30.8014   11.4091 C.3       14 UNK        -0.0915 
     18 CA        -56.7031  -31.3821   12.5133 C.3       13 UNK         0.0968 
     19 C         -55.5379  -32.2257   11.9133 C.2       13 UNK         0.5732 
     20 N         -54.2781  -31.8253   12.0443 N.am      13 UNK        -0.7310 
     21 O         -55.7869  -33.2750   11.3245 O.2       13 UNK        -0.5035 
     22 N         -56.2866  -30.3501   13.4742 N.am      13 UNK        -0.4233 
     23 C         -55.7296  -30.5853   14.6681 C.2       13 UNK         0.4989 
     24 O         -55.6811  -31.7038   15.1836 O.2       13 UNK        -0.4996 
     25 CA        -55.1178  -29.3763   15.4097 C.3       12 UNK         0.0216 
     26 CB        -53.8932  -29.7798   16.2578 C.3       12 UNK        -0.1964 
     27 N         -54.7732  -28.2294   14.5543 N.am      12 UNK        -0.4276 
     28 C         -53.9557  -28.2007   13.4920 C.2       12 UNK         0.5020 
     29 O         -53.4172  -29.2001   13.0146 O.2       12 UNK        -0.5489 
     30 CA        -53.6947  -26.8254   12.8500 C.3       11 UNK         0.0294 
     31 CB        -54.9099  -26.3287   12.0463 C.3       11 UNK        -0.2019 
     32 N         -53.2135  -25.8041   13.7889 N.am      11 UNK        -0.4493 
     33 C         -53.8215  -25.2564   14.8515 C.2       11 UNK         0.4932 
     34 O         -54.9789  -25.5111   15.1921 O.2       11 UNK        -0.5029 
     35 CA        -52.9595  -24.2805   15.6778 C.3       10 UNK         0.0280 
     36 CB        -53.6065  -23.8733   17.0186 C.3       10 UNK        -0.1976 
     37 N         -51.5963  -24.7941   15.8676 N.am      10 UNK        -0.4242 
     38 C         -51.2229  -25.9050   16.5225 C.2       10 UNK         0.5072 
     39 O         -51.9834  -26.5945   17.2024 O.2       10 UNK        -0.5224 
     40 CA        -49.7579  -26.3587   16.3654 C.3       9 UNK         0.0343 
     41 CB        -49.6824  -27.5576   15.4050 C.3       9 UNK        -0.2003 
     42 N         -48.8536  -25.3102   15.8832 N.am      9 UNK        -0.4272 
     43 C         -48.4377  -24.2632   16.6102 C.2       9 UNK         0.4988 
     44 O         -48.7441  -24.0806   17.7886 O.2       9 UNK        -0.5108 
     45 CA        -47.5476  -23.2345   15.8931 C.3       8 UNK         0.0248 
     46 CB        -46.0771  -23.6836   15.8914 C.3       8 UNK        -0.2001 
     47 N         -47.9923  -22.9847   14.5198 N.am      8 UNK        -0.4140 
     48 C         -49.0868  -22.2793   14.1988 C.2       8 UNK         0.5028 
     49 O         -49.8082  -21.7196   15.0246 O.2       8 UNK        -0.5428 
     50 CA        -49.4605  -22.2081   12.7080 C.3       7 UNK         0.0264 
     51 CB        -48.7174  -21.0499   12.0239 C.3       7 UNK        -0.1988 
     52 N         -49.2055  -23.4599   11.9869 N.am      7 UNK        -0.4454 
     53 C         -49.8398  -24.6139   12.2452 C.2       7 UNK         0.5027 
     54 O         -50.7353  -24.7199   13.0818 O.2       7 UNK        -0.5083 
     55 CA        -49.3859  -25.8799   11.4955 C.3       6 UNK         0.0844 
     56 C56       -50.1890  -26.0715   10.1912 C.3       14 UNK        -0.0967 
     57 S57       -49.8844  -27.7090    9.4445 S.3       14 UNK        -0.2604 
     58 C58       -51.3487  -28.6399   10.0033 C.3       14 UNK         0.0134 
     59 N         -47.9378  -25.9314   11.2853 N.am      6 UNK        -0.4116 
     60 C         -47.0231  -25.9669   12.2639 C.2       5 UNK         0.5034 
     61 O         -47.2983  -25.9036   13.4626 O.2       5 UNK        -0.5045 
     62 CA        -45.5558  -26.0652   11.8300 C.3       5 UNK         0.0224 
     63 CB        -45.2054  -27.5070   11.4273 C.3       5 UNK        -0.1978 
     64 N         -45.2848  -25.1628   10.7110 N.am      5 UNK        -0.4737 
     65 C         -44.9103  -23.8846   10.8470 C.2       4 UNK         0.5027 
     66 O         -44.6737  -23.3535   11.9322 O.2       4 UNK        -0.5211 
     67 CA        -44.7894  -23.0485    9.5586 C.3       4 UNK         0.0297 
     68 CB        -43.3639  -23.1417    8.9914 C.3       4 UNK        -0.1993 
     69 N         -45.7531  -23.4148    8.5148 N.am      4 UNK        -0.4486 
     70 C         -47.0830  -23.3068    8.6380 C.2       3 UNK         0.4961 
     71 O         -47.6475  -22.9051    9.6541 O.2       3 UNK        -0.5105 
     72 CA        -47.9393  -23.7619    7.4443 C.3       3 UNK         0.0299 
     73 CB        -47.9893  -22.6642    6.3700 C.3       3 UNK        -0.1972 
     74 N         -47.5683  -25.0386    6.8192 N.am      3 UNK        -0.4305 
     75 C         -47.2175  -26.1792    7.4315 C.2       2 UNK         0.5006 
     76 O         -46.9555  -26.2713    8.6314 O.2       2 UNK        -0.5106 
     77 CA        -47.2328  -27.4426    6.5549 C.3       2 UNK         0.0296 
     78 CB        -46.6233  -28.6628    7.2709 C.3       2 UNK        -0.2002 
     79 N         -48.6125  -27.7557    6.1759 N.am      2 UNK        -0.4032 
     80 C         -49.2838  -27.2010    5.1562 C.2       1 UNK         0.5000 
     81 O         -48.7639  -26.3991    4.3765 O.2       1 UNK        -0.5238 
     82 H82       -52.4627  -30.4727    7.1828 H         1 UNK         0.0889 
     83 H83       -50.8620  -31.1537    7.4996 H         1 UNK         0.0889 
     84 H84       -51.8713  -31.8153    6.2092 H         1 UNK         0.0889 
     85 H85       -51.8974  -28.3559    6.5911 H         1 UNK         0.3028 
     86 H86       -50.9035  -27.8924    3.9627 H         1 UNK         0.0864 
     87 H87       -51.3546  -25.5266    4.3992 H         1 UNK         0.0720 
     88 H88       -51.4468  -25.7823    6.1124 H         1 UNK         0.0720 
     89 H89       -55.1547  -25.7677    6.4420 H         1 UNK         0.0814 
     90 H90       -53.6069  -25.1307    6.9173 H         1 UNK         0.0814 
     91 H91       -51.9675  -26.6511    8.1118 H         1 UNK         0.1469 
     92 H92       -53.6626  -29.9575   10.2495 H         1 UNK         0.1381 
     93 H93       -56.0024  -27.8422    7.3513 H         1 UNK         0.1206 
     94 H94       -56.8454  -29.9263    8.3332 H         1 UNK         0.0813 
     95 H95       -55.7970  -30.9038    9.3303 H         1 UNK         0.0813 
     96 H96       -57.8500  -31.5400   10.6351 H         1 UNK         0.0638 
     97 H97       -58.5988  -30.5617   11.8552 H         1 UNK         0.0638 
     98 H98       -57.3027  -32.0999   13.0761 H         1 UNK         0.0568 
     99 H99       -53.5414  -32.3971   11.6657 H         1 UNK         0.3450 
    100 H100      -54.0516  -30.9443   12.4985 H         1 UNK         0.3450 
    101 H101      -56.2722  -29.4074   13.1147 H         1 UNK         0.2987 
    102 H102      -55.8913  -29.0216   16.0921 H         1 UNK         0.0766 
    103 H103      -53.4887  -28.9251   16.8004 H         1 UNK         0.0798 
    104 H104      -53.0943  -30.1911   15.6397 H         1 UNK         0.0798 
    105 H105      -54.1553  -30.5355   16.9992 H         1 UNK         0.0798 
    106 H106      -55.1246  -27.3239   14.8638 H         1 UNK         0.3198 
    107 H107      -52.8795  -26.9625   12.1400 H         1 UNK         0.0843 
    108 H108      -55.7960  -26.2054   12.6693 H         1 UNK         0.0831 
    109 H109      -55.1607  -27.0343   11.2542 H         1 UNK         0.0831 
    110 H110      -54.7016  -25.3728   11.5659 H         1 UNK         0.0831 
    111 H111      -52.2627  -25.4825   13.6064 H         1 UNK         0.3133 
    112 H112      -52.8585  -23.3772   15.0744 H         1 UNK         0.0566 
    113 H113      -52.9677  -23.1868   17.5742 H         1 UNK         0.0814 
    114 H114      -54.5586  -23.3681   16.8521 H         1 UNK         0.0814 
    115 H115      -53.8067  -24.7359   17.6546 H         1 UNK         0.0814 
    116 H116      -50.8901  -24.3465   15.2969 H         1 UNK         0.3091 
    117 H117      -49.4082  -26.6838   17.3474 H         1 UNK         0.0702 
    118 H118      -50.2874  -28.3892   15.7693 H         1 UNK         0.0785 
    119 H119      -50.0517  -27.2998   14.4124 H         1 UNK         0.0785 
    120 H120      -48.6599  -27.9209   15.2995 H         1 UNK         0.0785 
    121 H121      -48.4853  -25.4213   14.9425 H         1 UNK         0.2998 
    122 H122      -47.6107  -22.2957   16.4479 H         1 UNK         0.0697 
    123 H123      -45.9370  -24.6253   15.3600 H         1 UNK         0.0825 
    124 H124      -45.7147  -23.8292   16.9099 H         1 UNK         0.0825 
    125 H125      -45.4348  -22.9376   15.4228 H         1 UNK         0.0825 
    126 H126      -47.4732  -23.4384   13.7809 H         1 UNK         0.3029 
    127 H127      -50.5322  -22.0046   12.6501 H         1 UNK         0.0897 
    128 H128      -49.0570  -20.9147   10.9968 H         1 UNK         0.0792 
    129 H129      -47.6400  -21.2196   11.9997 H         1 UNK         0.0792 
    130 H130      -48.8902  -20.1086   12.5476 H         1 UNK         0.0792 
    131 H131      -48.5177  -23.4210   11.2365 H         1 UNK         0.3086 
    132 H132      -49.6290  -26.7208   12.1477 H         1 UNK         0.0583 
    133 H133      -51.2587  -25.9564   10.3776 H         1 UNK         0.1020 
    134 H134      -49.9244  -25.3038    9.4632 H         1 UNK         0.1020 
    135 H135      -51.1188  -29.7005    9.8918 H         1 UNK         0.0694 
    136 H136      -51.4925  -28.4749   11.0710 H         1 UNK         0.0694 
    137 H137      -47.6236  -26.0214   10.3213 H         1 UNK         0.2989 
    138 H138      -44.9341  -25.7905   12.6855 H         1 UNK         0.1055 
    139 H139      -45.3922  -28.1974   12.2510 H         1 UNK         0.0806 
    140 H140      -44.1522  -27.5975   11.1613 H         1 UNK         0.0806 
    141 H141      -45.7952  -27.8486   10.5755 H         1 UNK         0.0806 
    142 H142      -45.5456  -25.4974    9.7882 H         1 UNK         0.3061 
    143 H143      -44.9804  -22.0078    9.8297 H         1 UNK         0.0734 
    144 H144      -42.6268  -22.8497    9.7409 H         1 UNK         0.0832 
    145 H145      -43.2316  -22.4795    8.1356 H         1 UNK         0.0832 
    146 H146      -43.1207  -24.1566    8.6743 H         1 UNK         0.0832 
    147 H147      -45.3809  -23.7823    7.6511 H         1 UNK         0.3156 
    148 H148      -48.9548  -23.8940    7.8201 H         1 UNK         0.0589 
    149 H149      -47.0199  -22.5239    5.8902 H         1 UNK         0.0808 
    150 H150      -48.7166  -22.9011    5.5931 H         1 UNK         0.0808 
    151 H151      -48.2817  -21.7057    6.8018 H         1 UNK         0.0808 
    152 H152      -47.7754  -25.1155    5.8298 H         1 UNK         0.3098 
    153 H153      -46.6387  -27.2433    5.6606 H         1 UNK         0.0720 
    154 H154      -46.6115  -29.5378    6.6208 H         1 UNK         0.0791 
    155 H155      -47.1786  -28.9235    8.1731 H         1 UNK         0.0791 
    156 H156      -45.5927  -28.4653    7.5689 H         1 UNK         0.0791 
    157 H157      -49.1232  -28.3604    6.8033 H         1 UNK         0.3028 
@<TRIPOS>BOND
     1    1    2 1    
     2    1   82 1    
     3    1   83 1    
     4    1   84 1    
     5    2    3 2    
     6    2    4 am   BACKBONE|DICT|INTERRES
     7    4    5 1    
     8    4   85 1    
     9    5    6 1    
    10    5   80 1    
    11    5   86 1    
    12    6    7 1    
    13    6   87 1    
    14    6   88 1    
    15    7    8 1    
    16    8    9 1    
    17    8   89 1    
    18    8   90 1    
    19    9   10 ar   
    20    9   14 ar   
    21   10   11 ar   
    22   10   91 1    
    23   11   12 ar   
    24   11   58 1    
    25   12   13 ar   
    26   12   92 1    
    27   13   14 ar   
    28   13   15 1    
    29   14   93 1    
    30   15   16 1    
    31   15   94 1    
    32   15   95 1    
    33   16   17 1    
    34   17   18 1    
    35   17   96 1    
    36   17   97 1    
    37   18   19 1    
    38   18   22 1    
    39   18   98 1    
    40   19   20 am   BACKBONE|DICT|INTERRES
    41   19   21 2    
    42   20   99 1    
    43   20  100 1    
    44   22   23 am   BACKBONE|DICT|INTERRES
    45   22  101 1    
    46   23   24 2    
    47   23   25 1    
    48   25   26 1    
    49   25   27 1    
    50   25  102 1    
    51   26  103 1    
    52   26  104 1    
    53   26  105 1    
    54   27   28 am   BACKBONE|DICT|INTERRES
    55   27  106 1    
    56   28   29 2    
    57   28   30 1    
    58   30   31 1    
    59   30   32 1    
    60   30  107 1    
    61   31  108 1    
    62   31  109 1    
    63   31  110 1    
    64   32   33 am   BACKBONE|DICT|INTERRES
    65   32  111 1    
    66   33   34 2    
    67   33   35 1    
    68   35   36 1    
    69   35   37 1    
    70   35  112 1    
    71   36  113 1    
    72   36  114 1    
    73   36  115 1    
    74   37   38 am   BACKBONE|DICT|INTERRES
    75   37  116 1    
    76   38   39 2    
    77   38   40 1    
    78   40   41 1    
    79   40   42 1    
    80   40  117 1    
    81   41  118 1    
    82   41  119 1    
    83   41  120 1    
    84   42   43 am   BACKBONE|DICT|INTERRES
    85   42  121 1    
    86   43   44 2    
    87   43   45 1    
    88   45   46 1    
    89   45   47 1    
    90   45  122 1    
    91   46  123 1    
    92   46  124 1    
    93   46  125 1    
    94   47   48 am   BACKBONE|DICT|INTERRES
    95   47  126 1    
    96   48   49 2    
    97   48   50 1    
    98   50   51 1    
    99   50   52 1    
   100   50  127 1    
   101   51  128 1    
   102   51  129 1    
   103   51  130 1    
   104   52   53 am   BACKBONE|DICT|INTERRES
   105   52  131 1    
   106   53   54 2    
   107   53   55 1    
   108   55   56 1    
   109   55   59 1    
   110   55  132 1    
   111   56   57 1    
   112   56  133 1    
   113   56  134 1    
   114   57   58 1    
   115   58  135 1    
   116   58  136 1    
   117   59   60 am   BACKBONE|DICT|INTERRES
   118   59  137 1    
   119   60   61 2    
   120   60   62 1    
   121   62   63 1    
   122   62   64 1    
   123   62  138 1    
   124   63  139 1    
   125   63  140 1    
   126   63  141 1    
   127   64   65 am   BACKBONE|DICT|INTERRES
   128   64  142 1    
   129   65   66 2    
   130   65   67 1    
   131   67   68 1    
   132   67   69 1    
   133   67  143 1    
   134   68  144 1    
   135   68  145 1    
   136   68  146 1    
   137   69   70 am   BACKBONE|DICT|INTERRES
   138   69  147 1    
   139   70   71 2    
   140   70   72 1    
   141   72   73 1    
   142   72   74 1    
   143   72  148 1    
   144   73  149 1    
   145   73  150 1    
   146   73  151 1    
   147   74   75 am   BACKBONE|DICT|INTERRES
   148   74  152 1    
   149   75   76 2    
   150   75   77 1    
   151   77   78 1    
   152   77   79 1    
   153   77  153 1    
   154   78  154 1    
   155   78  155 1    
   156   78  156 1    
   157   79   80 am   BACKBONE|DICT|INTERRES
   158   79  157 1    
   159   80   81 2    
@<TRIPOS>SUBSTRUCTURE
     1 UNK         1 GROUP             0       ****    0 ROOT    
