@<TRIPOS>MOLECULE
3R207
157   159    1
SMALL
USER_CHARGES


@<TRIPOS>ATOM
      1 CA        -44.5077  -29.8538    2.9960 C.3       0 UNK        -0.1975 
      2 C         -45.3580  -28.9838    3.9094 C.2       0 UNK         0.4852 
      3 O         -44.8117  -28.1820    4.6688 O.2       0 UNK        -0.5216 
      4 N         -46.6897  -29.1260    3.8305 N.am      1 UNK        -0.4461 
      5 CA        -47.7259  -28.4240    4.6039 C.3       1 UNK         0.0864 
      6 C6        -47.6154  -28.6717    6.1380 C.3       14 UNK        -0.0898 
      7 S7        -48.9063  -27.8801    7.1608 S.3       14 UNK        -0.2598 
      8 C8        -50.3285  -28.9760    6.8542 C.3       14 UNK         0.0286 
      9 C9        -51.5407  -28.6082    7.7032 C.ar      14 UNK        -0.0844 
     10 C10       -52.0556  -27.3070    7.6847 C.ar      14 UNK        -0.0881 
     11 C11       -53.1816  -26.9747    8.4453 C.ar      14 UNK        -0.0643 
     12 C12       -53.8087  -27.9608    9.2105 C.ar      14 UNK        -0.0930 
     13 C13       -53.3167  -29.2684    9.2238 C.ar      14 UNK        -0.0827 
     14 C14       -52.1772  -29.5844    8.4777 C.ar      14 UNK        -0.1249 
     15 C15       -54.0539  -30.3466   10.0004 C.3       14 UNK         0.0141 
     16 S16       -53.4562  -30.4978   11.7120 S.3       14 UNK        -0.2313 
     17 C17       -54.7783  -31.5602   12.4014 C.3       14 UNK        -0.0915 
     18 CA        -55.6749  -30.8648   13.4665 C.3       13 UNK         0.0968 
     19 C         -55.0888  -30.9834   14.9050 C.2       13 UNK         0.5732 
     20 N         -54.8031  -29.8969   15.6113 N.am      13 UNK        -0.7310 
     21 O         -54.9141  -32.0935   15.4026 O.2       13 UNK        -0.5035 
     22 N         -56.0550  -29.5028   13.0625 N.am      13 UNK        -0.4233 
     23 C         -57.1082  -28.8254   13.5288 C.2       13 UNK         0.4989 
     24 O         -57.9783  -29.3063   14.2579 O.2       13 UNK        -0.4996 
     25 CA        -57.1814  -27.3391   13.1381 C.3       12 UNK         0.0216 
     26 CB        -58.4997  -27.0173   12.4142 C.3       12 UNK        -0.1964 
     27 N         -57.0436  -26.4777   14.3158 N.am      12 UNK        -0.4276 
     28 C         -55.9539  -26.4230   15.0929 C.2       12 UNK         0.5020 
     29 O         -54.9298  -27.0789   14.8820 O.2       12 UNK        -0.5489 
     30 CA        -56.0411  -25.5288   16.3391 C.3       11 UNK         0.0294 
     31 CB        -56.5956  -26.3288   17.5287 C.3       11 UNK        -0.2019 
     32 N         -54.7139  -25.0263   16.6872 N.am      11 UNK        -0.4493 
     33 C         -54.1313  -23.9524   16.1442 C.2       11 UNK         0.4932 
     34 O         -54.7153  -23.1617   15.4021 O.2       11 UNK        -0.5029 
     35 CA        -52.6423  -23.7261   16.4638 C.3       10 UNK         0.0280 
     36 CB        -52.4411  -23.1281   17.8701 C.3       10 UNK        -0.1976 
     37 N         -51.8086  -24.9155   16.2392 N.am      10 UNK        -0.4242 
     38 C         -51.7847  -26.0710   16.9203 C.2       10 UNK         0.5072 
     39 O         -52.4680  -26.2920   17.9218 O.2       10 UNK        -0.5224 
     40 CA        -50.8780  -27.1894   16.3818 C.3       9 UNK         0.0343 
     41 CB        -51.6729  -28.1058   15.4415 C.3       9 UNK        -0.2003 
     42 N         -49.6870  -26.6971   15.6870 N.am      9 UNK        -0.4272 
     43 C         -48.6018  -26.2164   16.3101 C.2       9 UNK         0.4988 
     44 O         -48.4996  -26.1221   17.5341 O.2       9 UNK        -0.5108 
     45 CA        -47.4232  -25.7781   15.4240 C.3       8 UNK         0.0248 
     46 CB        -46.6496  -26.9999   14.9027 C.3       8 UNK        -0.2001 
     47 N         -47.8349  -24.9335   14.3012 N.am      8 UNK        -0.4140 
     48 C         -48.3375  -23.6970   14.4323 C.2       8 UNK         0.5028 
     49 O         -48.4665  -23.1170   15.5110 O.2       8 UNK        -0.5428 
     50 CA        -48.7872  -22.9859   13.1458 C.3       7 UNK         0.0264 
     51 CB        -47.5925  -22.3182   12.4460 C.3       7 UNK        -0.1988 
     52 N         -49.4670  -23.8742   12.2027 N.am      7 UNK        -0.4454 
     53 C         -50.6235  -24.5106   12.4388 C.2       7 UNK         0.5027 
     54 O         -51.2585  -24.4134   13.4880 O.2       7 UNK        -0.5083 
     55 CA        -51.1251  -25.4475   11.3226 C.3       6 UNK         0.0844 
     56 C56       -51.6664  -24.6406   10.1068 C.3       14 UNK        -0.0967 
     57 S57       -53.4849  -24.6887   10.0044 S.3       14 UNK        -0.2604 
     58 C58       -53.7396  -25.5581    8.4231 C.3       14 UNK         0.0134 
     59 N         -50.0875  -26.4060   10.9348 N.am      6 UNK        -0.4116 
     60 C         -49.5072  -27.3005   11.7485 C.2       5 UNK         0.5034 
     61 O         -49.8153  -27.4708   12.9262 O.2       5 UNK        -0.5045 
     62 CA        -48.3320  -28.0977   11.1638 C.3       5 UNK         0.0224 
     63 CB        -48.8259  -29.3939   10.5045 C.3       5 UNK        -0.1978 
     64 N         -47.5494  -27.3044   10.2105 N.am      5 UNK        -0.4737 
     65 C         -46.7938  -26.2558   10.5679 C.2       4 UNK         0.5027 
     66 O         -46.6565  -25.8776   11.7316 O.2       4 UNK        -0.5211 
     67 CA        -46.1202  -25.4713    9.4327 C.3       4 UNK         0.0297 
     68 CB        -44.9310  -26.2553    8.8543 C.3       4 UNK        -0.1993 
     69 N         -47.0396  -25.1082    8.3516 N.am      4 UNK        -0.4486 
     70 C         -48.1166  -24.3192    8.4744 C.2       3 UNK         0.4961 
     71 O         -48.5085  -23.8781    9.5542 O.2       3 UNK        -0.5105 
     72 CA        -48.9186  -23.9807    7.1989 C.3       3 UNK         0.0299 
     73 CB        -49.3174  -22.4919    7.1523 C.3       3 UNK        -0.1972 
     74 N         -48.2891  -24.3966    5.9380 N.am      3 UNK        -0.4305 
     75 C         -47.1289  -23.9909    5.3998 C.2       2 UNK         0.5006 
     76 O         -46.4055  -23.1289    5.9003 O.2       2 UNK        -0.5106 
     77 CA        -46.6836  -24.7247    4.1154 C.3       2 UNK         0.0296 
     78 CB        -45.2617  -24.3352    3.6696 C.3       2 UNK        -0.2002 
     79 N         -46.7440  -26.1818    4.2770 N.am      2 UNK        -0.4032 
     80 C         -47.8542  -26.9288    4.2394 C.2       1 UNK         0.5000 
     81 O         -48.9649  -26.4640    3.9750 O.2       1 UNK        -0.5238 
     82 H82       -45.1157  -30.5109    2.3743 H         1 UNK         0.0889 
     83 H83       -43.8361  -30.4739    3.5892 H         1 UNK         0.0889 
     84 H84       -43.9034  -29.2284    2.3392 H         1 UNK         0.0889 
     85 H85       -47.0546  -29.7848    3.1556 H         1 UNK         0.3028 
     86 H86       -48.6619  -28.8815    4.2802 H         1 UNK         0.0864 
     87 H87       -47.6251  -29.7438    6.3399 H         1 UNK         0.0720 
     88 H88       -46.6558  -28.3134    6.5118 H         1 UNK         0.0720 
     89 H89       -50.0264  -30.0071    7.0444 H         1 UNK         0.0814 
     90 H90       -50.6080  -28.9202    5.8016 H         1 UNK         0.0814 
     91 H91       -51.5769  -26.5540    7.0739 H         1 UNK         0.1469 
     92 H92       -54.6883  -27.7088    9.7868 H         1 UNK         0.1381 
     93 H93       -51.7997  -30.5979    8.4860 H         1 UNK         0.1206 
     94 H94       -55.1219  -30.1220   10.0059 H         1 UNK         0.0813 
     95 H95       -53.9484  -31.3096    9.4982 H         1 UNK         0.0813 
     96 H96       -55.4135  -31.9076   11.5855 H         1 UNK         0.0638 
     97 H97       -54.3184  -32.4676   12.7973 H         1 UNK         0.0638 
     98 H98       -56.5996  -31.4435   13.5090 H         1 UNK         0.0568 
     99 H99       -54.9086  -28.9656   15.2182 H         1 UNK         0.3450 
    100 H100      -54.4419  -30.0072   16.5441 H         1 UNK         0.3450 
    101 H101      -55.3609  -29.0155   12.5150 H         1 UNK         0.2987 
    102 H102      -56.3582  -27.1076   12.4583 H         1 UNK         0.0766 
    103 H103      -58.5288  -25.9786   12.0842 H         1 UNK         0.0798 
    104 H104      -59.3666  -27.1919   13.0529 H         1 UNK         0.0798 
    105 H105      -58.6184  -27.6411   11.5271 H         1 UNK         0.0798 
    106 H106      -57.8585  -25.9435   14.5814 H         1 UNK         0.3198 
    107 H107      -56.7070  -24.6876   16.1344 H         1 UNK         0.0843 
    108 H108      -55.9654  -27.1875   17.7653 H         1 UNK         0.0831 
    109 H109      -57.5956  -26.7084   17.3147 H         1 UNK         0.0831 
    110 H110      -56.6686  -25.7101   18.4233 H         1 UNK         0.0831 
    111 H111      -54.1189  -25.6421   17.2356 H         1 UNK         0.3133 
    112 H112      -52.2785  -22.9879   15.7471 H         1 UNK         0.0566 
    113 H113      -51.3878  -22.9270   18.0661 H         1 UNK         0.0814 
    114 H114      -52.9762  -22.1828   17.9674 H         1 UNK         0.0814 
    115 H115      -52.8089  -23.7878   18.6562 H         1 UNK         0.0814 
    116 H116      -51.2888  -24.8828   15.3656 H         1 UNK         0.3091 
    117 H117      -50.5532  -27.7885   17.2353 H         1 UNK         0.0702 
    118 H118      -52.5297  -28.5316   15.9610 H         1 UNK         0.0785 
    119 H119      -51.0655  -28.9355   15.0797 H         1 UNK         0.0785 
    120 H120      -52.0546  -27.5642   14.5744 H         1 UNK         0.0785 
    121 H121      -49.6842  -26.7890   14.6732 H         1 UNK         0.2998 
    122 H122      -46.7426  -25.1917   16.0449 H         1 UNK         0.0697 
    123 H123      -47.2699  -27.6282   14.2637 H         1 UNK         0.0825 
    124 H124      -46.2985  -27.6204   15.7282 H         1 UNK         0.0825 
    125 H125      -45.7738  -26.6993   14.3273 H         1 UNK         0.0825 
    126 H126      -47.6940  -25.3071   13.3670 H         1 UNK         0.3029 
    127 H127      -49.4962  -22.2061   13.4321 H         1 UNK         0.0897 
    128 H128      -47.9143  -21.7386   11.5805 H         1 UNK         0.0792 
    129 H129      -46.8649  -23.0542   12.1009 H         1 UNK         0.0792 
    130 H130      -47.0746  -21.6354   13.1209 H         1 UNK         0.0792 
    131 H131      -49.0285  -23.9852   11.2886 H         1 UNK         0.3086 
    132 H132      -51.9328  -26.0471   11.7488 H         1 UNK         0.0583 
    133 H133      -51.3592  -23.5924   10.1252 H         1 UNK         0.1020 
    134 H134      -51.2532  -25.0222    9.1744 H         1 UNK         0.1020 
    135 H135      -54.8091  -25.5976    8.2117 H         1 UNK         0.0694 
    136 H136      -53.2911  -24.9747    7.6173 H         1 UNK         0.0694 
    137 H137      -49.7333  -26.3346    9.9939 H         1 UNK         0.2989 
    138 H138      -47.6738  -28.3719   11.9908 H         1 UNK         0.1055 
    139 H139      -49.3168  -30.0364   11.2368 H         1 UNK         0.0806 
    140 H140      -48.0034  -29.9630   10.0712 H         1 UNK         0.0806 
    141 H141      -49.5521  -29.1962    9.7180 H         1 UNK         0.0806 
    142 H142      -47.6370  -27.5377    9.2299 H         1 UNK         0.3061 
    143 H143      -45.7379  -24.5421    9.8607 H         1 UNK         0.0734 
    144 H144      -44.3843  -25.6623    8.1206 H         1 UNK         0.0832 
    145 H145      -44.2243  -26.5260    9.6401 H         1 UNK         0.0832 
    146 H146      -45.2478  -27.1793    8.3691 H         1 UNK         0.0832 
    147 H147      -46.8018  -25.4295    7.4259 H         1 UNK         0.3156 
    148 H148      -49.8381  -24.5626    7.2663 H         1 UNK         0.0589 
    149 H149      -48.4439  -21.8394    7.1411 H         1 UNK         0.0808 
    150 H150      -49.9156  -22.2683    6.2692 H         1 UNK         0.0808 
    151 H151      -49.9144  -22.2173    8.0230 H         1 UNK         0.0808 
    152 H152      -48.7884  -25.1161    5.4213 H         1 UNK         0.3098 
    153 H153      -47.3738  -24.4298    3.3222 H         1 UNK         0.0720 
    154 H154      -44.9867  -24.8358    2.7410 H         1 UNK         0.0791 
    155 H155      -44.5175  -24.5957    4.4234 H         1 UNK         0.0791 
    156 H156      -45.1863  -23.2616    3.4912 H         1 UNK         0.0791 
    157 H157      -45.8763  -26.6636    4.5044 H         1 UNK         0.3028 
@<TRIPOS>BOND
     1    1    2 1    
     2    1   82 1    
     3    1   83 1    
     4    1   84 1    
     5    2    3 2    
     6    2    4 am   BACKBONE|DICT|INTERRES
     7    4    5 1    
     8    4   85 1    
     9    5    6 1    
    10    5   80 1    
    11    5   86 1    
    12    6    7 1    
    13    6   87 1    
    14    6   88 1    
    15    7    8 1    
    16    8    9 1    
    17    8   89 1    
    18    8   90 1    
    19    9   10 ar   
    20    9   14 ar   
    21   10   11 ar   
    22   10   91 1    
    23   11   12 ar   
    24   11   58 1    
    25   12   13 ar   
    26   12   92 1    
    27   13   14 ar   
    28   13   15 1    
    29   14   93 1    
    30   15   16 1    
    31   15   94 1    
    32   15   95 1    
    33   16   17 1    
    34   17   18 1    
    35   17   96 1    
    36   17   97 1    
    37   18   19 1    
    38   18   22 1    
    39   18   98 1    
    40   19   20 am   BACKBONE|DICT|INTERRES
    41   19   21 2    
    42   20   99 1    
    43   20  100 1    
    44   22   23 am   BACKBONE|DICT|INTERRES
    45   22  101 1    
    46   23   24 2    
    47   23   25 1    
    48   25   26 1    
    49   25   27 1    
    50   25  102 1    
    51   26  103 1    
    52   26  104 1    
    53   26  105 1    
    54   27   28 am   BACKBONE|DICT|INTERRES
    55   27  106 1    
    56   28   29 2    
    57   28   30 1    
    58   30   31 1    
    59   30   32 1    
    60   30  107 1    
    61   31  108 1    
    62   31  109 1    
    63   31  110 1    
    64   32   33 am   BACKBONE|DICT|INTERRES
    65   32  111 1    
    66   33   34 2    
    67   33   35 1    
    68   35   36 1    
    69   35   37 1    
    70   35  112 1    
    71   36  113 1    
    72   36  114 1    
    73   36  115 1    
    74   37   38 am   BACKBONE|DICT|INTERRES
    75   37  116 1    
    76   38   39 2    
    77   38   40 1    
    78   40   41 1    
    79   40   42 1    
    80   40  117 1    
    81   41  118 1    
    82   41  119 1    
    83   41  120 1    
    84   42   43 am   BACKBONE|DICT|INTERRES
    85   42  121 1    
    86   43   44 2    
    87   43   45 1    
    88   45   46 1    
    89   45   47 1    
    90   45  122 1    
    91   46  123 1    
    92   46  124 1    
    93   46  125 1    
    94   47   48 am   BACKBONE|DICT|INTERRES
    95   47  126 1    
    96   48   49 2    
    97   48   50 1    
    98   50   51 1    
    99   50   52 1    
   100   50  127 1    
   101   51  128 1    
   102   51  129 1    
   103   51  130 1    
   104   52   53 am   BACKBONE|DICT|INTERRES
   105   52  131 1    
   106   53   54 2    
   107   53   55 1    
   108   55   56 1    
   109   55   59 1    
   110   55  132 1    
   111   56   57 1    
   112   56  133 1    
   113   56  134 1    
   114   57   58 1    
   115   58  135 1    
   116   58  136 1    
   117   59   60 am   BACKBONE|DICT|INTERRES
   118   59  137 1    
   119   60   61 2    
   120   60   62 1    
   121   62   63 1    
   122   62   64 1    
   123   62  138 1    
   124   63  139 1    
   125   63  140 1    
   126   63  141 1    
   127   64   65 am   BACKBONE|DICT|INTERRES
   128   64  142 1    
   129   65   66 2    
   130   65   67 1    
   131   67   68 1    
   132   67   69 1    
   133   67  143 1    
   134   68  144 1    
   135   68  145 1    
   136   68  146 1    
   137   69   70 am   BACKBONE|DICT|INTERRES
   138   69  147 1    
   139   70   71 2    
   140   70   72 1    
   141   72   73 1    
   142   72   74 1    
   143   72  148 1    
   144   73  149 1    
   145   73  150 1    
   146   73  151 1    
   147   74   75 am   BACKBONE|DICT|INTERRES
   148   74  152 1    
   149   75   76 2    
   150   75   77 1    
   151   77   78 1    
   152   77   79 1    
   153   77  153 1    
   154   78  154 1    
   155   78  155 1    
   156   78  156 1    
   157   79   80 am   BACKBONE|DICT|INTERRES
   158   79  157 1    
   159   80   81 2    
@<TRIPOS>SUBSTRUCTURE
     1 UNK         1 GROUP             0       ****    0 ROOT    
