@<TRIPOS>MOLECULE
3R207
157   159    1
SMALL
USER_CHARGES


@<TRIPOS>ATOM
      1 CA        -47.7719  -30.1748    7.5869 C.3       0 UNK        -0.1975 
      2 C         -49.1221  -29.6497    8.0697 C.2       0 UNK         0.4852 
      3 O         -49.3520  -29.6189    9.2757 O.2       0 UNK        -0.5216 
      4 N         -50.0385  -29.2324    7.1824 N.am      1 UNK        -0.4461 
      5 CA        -49.9068  -29.1811    5.7167 C.3       1 UNK         0.0864 
      6 C6        -51.2849  -29.0683    5.0144 C.3       14 UNK        -0.0898 
      7 S7        -52.2801  -30.5889    5.1889 S.3       14 UNK        -0.2598 
      8 C8        -53.7542  -30.0003    6.0825 C.3       14 UNK         0.0286 
      9 C9        -53.4256  -29.6401    7.5216 C.ar      14 UNK        -0.0844 
     10 C10       -53.3237  -28.3030    7.9103 C.ar      14 UNK        -0.0881 
     11 C11       -52.9654  -27.9734    9.2196 C.ar      14 UNK        -0.0643 
     12 C12       -52.7337  -28.9904   10.1517 C.ar      14 UNK        -0.0930 
     13 C13       -52.8643  -30.3317    9.7804 C.ar      14 UNK        -0.0827 
     14 C14       -53.2049  -30.6490    8.4622 C.ar      14 UNK        -0.1249 
     15 C15       -52.6068  -31.4440   10.7889 C.3       14 UNK         0.0141 
     16 S16       -53.9191  -31.5836   12.0488 S.3       14 UNK        -0.2313 
     17 C17       -55.4263  -31.8399   11.0375 C.3       14 UNK        -0.0915 
     18 CA        -56.5657  -30.8163   11.3127 C.3       13 UNK         0.0968 
     19 C         -57.4315  -31.2431   12.5303 C.2       13 UNK         0.5732 
     20 N         -58.5226  -31.9596   12.2951 N.am      13 UNK        -0.7310 
     21 O         -57.1011  -30.9734   13.6829 O.2       13 UNK        -0.5035 
     22 N         -56.0501  -29.4477   11.4422 N.am      13 UNK        -0.4233 
     23 C         -56.7869  -28.3310   11.4413 C.2       13 UNK         0.4989 
     24 O         -57.9890  -28.3013   11.1700 O.2       13 UNK        -0.4996 
     25 CA        -56.0381  -27.0374   11.8296 C.3       12 UNK         0.0216 
     26 CB        -56.9570  -25.7990   11.8999 C.3       12 UNK        -0.1964 
     27 N         -55.2702  -27.1934   13.0757 N.am      12 UNK        -0.4276 
     28 C         -55.7510  -27.5463   14.2799 C.2       12 UNK         0.5020 
     29 O         -56.9467  -27.6748   14.5445 O.2       12 UNK        -0.5489 
     30 CA        -54.7103  -27.8168   15.3766 C.3       11 UNK         0.0294 
     31 CB        -54.0633  -29.1988   15.1788 C.3       11 UNK        -0.2019 
     32 N         -53.6624  -26.7970   15.4389 N.am      11 UNK        -0.4493 
     33 C         -53.7995  -25.5905   16.0074 C.2       11 UNK         0.4932 
     34 O         -54.8646  -25.1778   16.4686 O.2       11 UNK        -0.5029 
     35 CA        -52.5441  -24.6909   16.0794 C.3       10 UNK         0.0280 
     36 CB        -52.4686  -23.8899   17.3962 C.3       10 UNK        -0.1976 
     37 N         -51.2763  -25.3903   15.8196 N.am      10 UNK        -0.4242 
     38 C         -50.7248  -26.3865   16.5315 C.2       10 UNK         0.5072 
     39 O         -51.1996  -26.8387   17.5737 O.2       10 UNK        -0.5224 
     40 CA        -49.4543  -27.0268   15.9520 C.3       9 UNK         0.0343 
     41 CB        -49.8186  -28.0069   14.8233 C.3       9 UNK        -0.2003 
     42 N         -48.4822  -26.0494   15.4591 N.am      9 UNK        -0.4272 
     43 C         -47.7256  -25.2722   16.2472 C.2       9 UNK         0.4988 
     44 O         -47.7870  -25.2756   17.4774 O.2       9 UNK        -0.5108 
     45 CA        -46.7131  -24.3474   15.5496 C.3       8 UNK         0.0248 
     46 CB        -45.4915  -25.1424   15.0598 C.3       8 UNK        -0.2001 
     47 N         -47.3002  -23.6041   14.4341 N.am      8 UNK        -0.4140 
     48 C         -48.2033  -22.6230   14.5753 C.2       8 UNK         0.5028 
     49 O         -48.5906  -22.1964   15.6639 O.2       8 UNK        -0.5428 
     50 CA        -48.7877  -22.0205   13.2861 C.3       7 UNK         0.0264 
     51 CB        -47.8617  -20.9264   12.7313 C.3       7 UNK        -0.1988 
     52 N         -49.0521  -23.0203   12.2473 N.am      7 UNK        -0.4454 
     53 C         -49.9268  -24.0294   12.3750 C.2       7 UNK         0.5027 
     54 O         -50.6290  -24.2037   13.3698 O.2       7 UNK        -0.5083 
     55 CA        -50.0105  -25.0491   11.2268 C.3       6 UNK         0.0844 
     56 C56       -50.9031  -24.5200   10.0801 C.3       14 UNK        -0.0967 
     57 S57       -51.2818  -25.8363    8.8820 S.3       14 UNK        -0.2604 
     58 C58       -52.7989  -26.5174    9.6116 C.3       14 UNK         0.0134 
     59 N         -48.6855  -25.4681   10.7686 N.am      6 UNK        -0.4116 
     60 C         -47.7689  -26.0884   11.5236 C.2       5 UNK         0.5034 
     61 O         -47.9467  -26.4150   12.6962 O.2       5 UNK        -0.5045 
     62 CA        -46.3945  -26.3225   10.8821 C.3       5 UNK         0.0224 
     63 CB        -46.4154  -27.5459    9.9513 C.3       5 UNK        -0.1978 
     64 N         -45.9330  -25.1405   10.1512 N.am      5 UNK        -0.4737 
     65 C         -45.5885  -23.9828   10.7329 C.2       4 UNK         0.5027 
     66 O         -45.5799  -23.8043   11.9508 O.2       4 UNK        -0.5211 
     67 CA        -45.2275  -22.8194    9.7944 C.3       4 UNK         0.0297 
     68 CB        -43.7612  -22.9212    9.3458 C.3       4 UNK        -0.1993 
     69 N         -46.0998  -22.7458    8.6186 N.am      4 UNK        -0.4486 
     70 C         -47.4065  -22.4515    8.6681 C.2       3 UNK         0.4961 
     71 O         -48.0144  -22.1966    9.7070 O.2       3 UNK        -0.5105 
     72 CA        -48.1786  -22.4921    7.3383 C.3       3 UNK         0.0299 
     73 CB        -47.9714  -21.1870    6.5532 C.3       3 UNK        -0.1972 
     74 N         -47.8600  -23.6423    6.4821 N.am      3 UNK        -0.4305 
     75 C         -47.9465  -24.9248    6.8592 C.2       2 UNK         0.5006 
     76 O         -48.1790  -25.2917    8.0110 O.2       2 UNK        -0.5106 
     77 CA        -47.7083  -25.9880    5.7886 C.3       2 UNK         0.0296 
     78 CB        -46.2380  -26.4477    5.8001 C.3       2 UNK        -0.2002 
     79 N         -48.5976  -27.1095    6.0803 N.am      2 UNK        -0.4032 
     80 C         -48.9557  -28.0680    5.2176 C.2       1 UNK         0.5000 
     81 O         -48.5526  -28.1105    4.0537 O.2       1 UNK        -0.5238 
     82 H82       -47.1693  -29.3757    7.1573 H         1 UNK         0.0889 
     83 H83       -47.8941  -30.9653    6.8476 H         1 UNK         0.0889 
     84 H84       -47.2107  -30.5947    8.4216 H         1 UNK         0.0889 
     85 H85       -50.9375  -28.9391    7.5429 H         1 UNK         0.3028 
     86 H86       -49.4592  -30.1207    5.3886 H         1 UNK         0.0864 
     87 H87       -51.1615  -28.9062    3.9415 H         1 UNK         0.0720 
     88 H88       -51.8381  -28.2036    5.3838 H         1 UNK         0.0720 
     89 H89       -54.1900  -29.1515    5.5531 H         1 UNK         0.0814 
     90 H90       -54.5107  -30.7864    6.0722 H         1 UNK         0.0814 
     91 H91       -53.4919  -27.5143    7.1893 H         1 UNK         0.1469 
     92 H92       -52.4398  -28.7434   11.1624 H         1 UNK         0.1381 
     93 H93       -53.2852  -31.6844    8.1601 H         1 UNK         0.1206 
     94 H94       -52.5008  -32.4051   10.2834 H         1 UNK         0.0813 
     95 H95       -51.6548  -31.2591   11.2886 H         1 UNK         0.0813 
     96 H96       -55.7721  -32.8641   11.1899 H         1 UNK         0.0638 
     97 H97       -55.1643  -31.7942    9.9817 H         1 UNK         0.0638 
     98 H98       -57.2187  -30.8202   10.4375 H         1 UNK         0.0568 
     99 H99       -59.0865  -32.2598   13.0747 H         1 UNK         0.3450 
    100 H100      -58.7980  -32.2004   11.3558 H         1 UNK         0.3450 
    101 H101      -55.0744  -29.3916   11.6907 H         1 UNK         0.2987 
    102 H102      -55.3138  -26.8590   11.0348 H         1 UNK         0.0766 
    103 H103      -56.3918  -24.8996   12.1443 H         1 UNK         0.0798 
    104 H104      -57.7406  -25.9159   12.6492 H         1 UNK         0.0798 
    105 H105      -57.4480  -25.6229   10.9420 H         1 UNK         0.0798 
    106 H106      -54.2699  -27.0876   12.9927 H         1 UNK         0.3198 
    107 H107      -55.2356  -27.8284   16.3345 H         1 UNK         0.0843 
    108 H108      -53.4784  -29.2519   14.2599 H         1 UNK         0.0831 
    109 H109      -54.8235  -29.9798   15.1228 H         1 UNK         0.0831 
    110 H110      -53.4044  -29.4501   16.0102 H         1 UNK         0.0831 
    111 H111      -52.7481  -27.0532   15.0996 H         1 UNK         0.3133 
    112 H112      -52.6526  -23.9701   15.2679 H         1 UNK         0.0566 
    113 H113      -51.5873  -23.2485   17.4183 H         1 UNK         0.0814 
    114 H114      -53.3398  -23.2445   17.5142 H         1 UNK         0.0814 
    115 H115      -52.4300  -24.5443   18.2675 H         1 UNK         0.0814 
    116 H116      -50.8100  -25.0887   14.9648 H         1 UNK         0.3091 
    117 H117      -48.9795  -27.5999   16.7515 H         1 UNK         0.0702 
    118 H118      -50.5321  -28.7568   15.1680 H         1 UNK         0.0785 
    119 H119      -50.2636  -27.4955   13.9687 H         1 UNK         0.0785 
    120 H120      -48.9374  -28.5402   14.4660 H         1 UNK         0.0785 
    121 H121      -48.3306  -26.0255   14.4521 H         1 UNK         0.2998 
    122 H122      -46.3645  -23.6219   16.2878 H         1 UNK         0.0697 
    123 H123      -45.7600  -25.8683   14.2919 H         1 UNK         0.0825 
    124 H124      -45.0274  -25.6909   15.8805 H         1 UNK         0.0825 
    125 H125      -44.7322  -24.4817   14.6407 H         1 UNK         0.0825 
    126 H126      -46.9856  -23.8504   13.5011 H         1 UNK         0.3029 
    127 H127      -49.7423  -21.5579   13.5463 H         1 UNK         0.0897 
    128 H128      -48.3120  -20.4229   11.8757 H         1 UNK         0.0792 
    129 H129      -46.9021  -21.3342   12.4117 H         1 UNK         0.0792 
    130 H130      -47.6594  -20.1649   13.4858 H         1 UNK         0.0792 
    131 H131      -48.5512  -22.9065   11.3681 H         1 UNK         0.3086 
    132 H132      -50.4897  -25.9390   11.6409 H         1 UNK         0.0583 
    133 H133      -51.8404  -24.1095   10.4618 H         1 UNK         0.1020 
    134 H134      -50.4074  -23.7033    9.5526 H         1 UNK         0.1020 
    135 H135      -52.7647  -26.4223   10.6978 H         1 UNK         0.0694 
    136 H136      -53.6575  -25.9356    9.2729 H         1 UNK         0.0694 
    137 H137      -48.4679  -25.2861    9.7902 H         1 UNK         0.2989 
    138 H138      -45.6843  -26.5203   11.6882 H         1 UNK         0.1055 
    139 H139      -46.7321  -28.4390   10.4922 H         1 UNK         0.0806 
    140 H140      -45.4273  -27.7497    9.5390 H         1 UNK         0.0806 
    141 H141      -47.1064  -27.4143    9.1191 H         1 UNK         0.0806 
    142 H142      -45.9858  -25.1769    9.1436 H         1 UNK         0.3061 
    143 H143      -45.3467  -21.8920   10.3589 H         1 UNK         0.0734 
    144 H144      -43.4674  -22.0573    8.7493 H         1 UNK         0.0832 
    145 H145      -43.0933  -22.9593   10.2077 H         1 UNK         0.0832 
    146 H146      -43.5784  -23.8182    8.7529 H         1 UNK         0.0832 
    147 H147      -45.6863  -22.9494    7.7204 H         1 UNK         0.3156 
    148 H148      -49.2393  -22.5676    7.5864 H         1 UNK         0.0589 
    149 H149      -46.9383  -21.0711    6.2232 H         1 UNK         0.0808 
    150 H150      -48.6124  -21.1469    5.6724 H         1 UNK         0.0808 
    151 H151      -48.2163  -20.3192    7.1677 H         1 UNK         0.0808 
    152 H152      -47.6386  -23.4367    5.5182 H         1 UNK         0.3098 
    153 H153      -47.9614  -25.5738    4.8104 H         1 UNK         0.0720 
    154 H154      -45.9596  -26.8828    6.7608 H         1 UNK         0.0791 
    155 H155      -45.5640  -25.6113    5.6112 H         1 UNK         0.0791 
    156 H156      -46.0473  -27.1941    5.0289 H         1 UNK         0.0791 
    157 H157      -48.9935  -27.0966    7.0136 H         1 UNK         0.3028 
@<TRIPOS>BOND
     1    1    2 1    
     2    1   82 1    
     3    1   83 1    
     4    1   84 1    
     5    2    3 2    
     6    2    4 am   BACKBONE|DICT|INTERRES
     7    4    5 1    
     8    4   85 1    
     9    5    6 1    
    10    5   80 1    
    11    5   86 1    
    12    6    7 1    
    13    6   87 1    
    14    6   88 1    
    15    7    8 1    
    16    8    9 1    
    17    8   89 1    
    18    8   90 1    
    19    9   10 ar   
    20    9   14 ar   
    21   10   11 ar   
    22   10   91 1    
    23   11   12 ar   
    24   11   58 1    
    25   12   13 ar   
    26   12   92 1    
    27   13   14 ar   
    28   13   15 1    
    29   14   93 1    
    30   15   16 1    
    31   15   94 1    
    32   15   95 1    
    33   16   17 1    
    34   17   18 1    
    35   17   96 1    
    36   17   97 1    
    37   18   19 1    
    38   18   22 1    
    39   18   98 1    
    40   19   20 am   BACKBONE|DICT|INTERRES
    41   19   21 2    
    42   20   99 1    
    43   20  100 1    
    44   22   23 am   BACKBONE|DICT|INTERRES
    45   22  101 1    
    46   23   24 2    
    47   23   25 1    
    48   25   26 1    
    49   25   27 1    
    50   25  102 1    
    51   26  103 1    
    52   26  104 1    
    53   26  105 1    
    54   27   28 am   BACKBONE|DICT|INTERRES
    55   27  106 1    
    56   28   29 2    
    57   28   30 1    
    58   30   31 1    
    59   30   32 1    
    60   30  107 1    
    61   31  108 1    
    62   31  109 1    
    63   31  110 1    
    64   32   33 am   BACKBONE|DICT|INTERRES
    65   32  111 1    
    66   33   34 2    
    67   33   35 1    
    68   35   36 1    
    69   35   37 1    
    70   35  112 1    
    71   36  113 1    
    72   36  114 1    
    73   36  115 1    
    74   37   38 am   BACKBONE|DICT|INTERRES
    75   37  116 1    
    76   38   39 2    
    77   38   40 1    
    78   40   41 1    
    79   40   42 1    
    80   40  117 1    
    81   41  118 1    
    82   41  119 1    
    83   41  120 1    
    84   42   43 am   BACKBONE|DICT|INTERRES
    85   42  121 1    
    86   43   44 2    
    87   43   45 1    
    88   45   46 1    
    89   45   47 1    
    90   45  122 1    
    91   46  123 1    
    92   46  124 1    
    93   46  125 1    
    94   47   48 am   BACKBONE|DICT|INTERRES
    95   47  126 1    
    96   48   49 2    
    97   48   50 1    
    98   50   51 1    
    99   50   52 1    
   100   50  127 1    
   101   51  128 1    
   102   51  129 1    
   103   51  130 1    
   104   52   53 am   BACKBONE|DICT|INTERRES
   105   52  131 1    
   106   53   54 2    
   107   53   55 1    
   108   55   56 1    
   109   55   59 1    
   110   55  132 1    
   111   56   57 1    
   112   56  133 1    
   113   56  134 1    
   114   57   58 1    
   115   58  135 1    
   116   58  136 1    
   117   59   60 am   BACKBONE|DICT|INTERRES
   118   59  137 1    
   119   60   61 2    
   120   60   62 1    
   121   62   63 1    
   122   62   64 1    
   123   62  138 1    
   124   63  139 1    
   125   63  140 1    
   126   63  141 1    
   127   64   65 am   BACKBONE|DICT|INTERRES
   128   64  142 1    
   129   65   66 2    
   130   65   67 1    
   131   67   68 1    
   132   67   69 1    
   133   67  143 1    
   134   68  144 1    
   135   68  145 1    
   136   68  146 1    
   137   69   70 am   BACKBONE|DICT|INTERRES
   138   69  147 1    
   139   70   71 2    
   140   70   72 1    
   141   72   73 1    
   142   72   74 1    
   143   72  148 1    
   144   73  149 1    
   145   73  150 1    
   146   73  151 1    
   147   74   75 am   BACKBONE|DICT|INTERRES
   148   74  152 1    
   149   75   76 2    
   150   75   77 1    
   151   77   78 1    
   152   77   79 1    
   153   77  153 1    
   154   78  154 1    
   155   78  155 1    
   156   78  156 1    
   157   79   80 am   BACKBONE|DICT|INTERRES
   158   79  157 1    
   159   80   81 2    
@<TRIPOS>SUBSTRUCTURE
     1 UNK         1 GROUP             0       ****    0 ROOT    
