@<TRIPOS>MOLECULE
3R207
157   159    1
SMALL
USER_CHARGES


@<TRIPOS>ATOM
      1 CA        -50.3607  -30.0768    4.0625 C.3       0 UNK        -0.1975 
      2 C         -51.1427  -30.0963    5.3741 C.2       0 UNK         0.4852 
      3 O         -51.3874  -31.1771    5.9040 O.2       0 UNK        -0.5216 
      4 N         -51.5551  -28.9461    5.9308 N.am      1 UNK        -0.4461 
      5 CA        -51.3055  -27.5821    5.4372 C.3       1 UNK         0.0864 
      6 C6        -52.2358  -26.5310    6.0963 C.3       14 UNK        -0.0898 
      7 S7        -54.0069  -26.8765    5.8189 S.3       14 UNK        -0.2598 
      8 C8        -54.6232  -27.1244    7.5161 C.3       14 UNK         0.0286 
      9 C9        -53.9812  -28.3353    8.1747 C.ar      14 UNK        -0.0844 
     10 C10       -53.0133  -28.1692    9.1678 C.ar      14 UNK        -0.0881 
     11 C11       -52.3787  -29.2776    9.7354 C.ar      14 UNK        -0.0643 
     12 C12       -52.7338  -30.5624    9.3105 C.ar      14 UNK        -0.0930 
     13 C13       -53.7363  -30.7439    8.3518 C.ar      14 UNK        -0.0827 
     14 C14       -54.3465  -29.6237    7.7796 C.ar      14 UNK        -0.1249 
     15 C15       -54.1586  -32.1409    7.9047 C.3       14 UNK         0.0141 
     16 S16       -54.6664  -33.2758    9.2517 S.3       14 UNK        -0.2313 
     17 C17       -55.4127  -32.2226   10.5451 C.3       14 UNK        -0.0915 
     18 CA        -56.5494  -31.2631   10.0640 C.3       13 UNK         0.0968 
     19 C         -57.9831  -31.7929   10.3695 C.2       13 UNK         0.5732 
     20 N         -58.9423  -30.9414   10.7126 N.am      13 UNK        -0.7310 
     21 O         -58.2443  -32.9887   10.2597 O.2       13 UNK        -0.5035 
     22 N         -56.2914  -29.8670   10.4627 N.am      13 UNK        -0.4233 
     23 C         -56.1616  -29.4273   11.7193 C.2       13 UNK         0.4989 
     24 O         -56.3514  -30.1203   12.7230 O.2       13 UNK        -0.4996 
     25 CA        -55.7351  -27.9654   11.8881 C.3       12 UNK         0.0216 
     26 CB        -56.9479  -27.0191   11.8726 C.3       12 UNK        -0.1964 
     27 N         -55.0299  -27.8589   13.1604 N.am      12 UNK        -0.4276 
     28 C         -54.0294  -27.0198   13.4377 C.2       12 UNK         0.5020 
     29 O         -53.6128  -26.1585   12.6594 O.2       12 UNK        -0.5489 
     30 CA        -53.3559  -27.2220   14.8012 C.3       11 UNK         0.0294 
     31 CB        -52.2614  -28.2987   14.7009 C.3       11 UNK        -0.2019 
     32 N         -52.7332  -25.9823   15.2529 N.am      11 UNK        -0.4493 
     33 C         -53.1320  -25.2369   16.2892 C.2       11 UNK         0.4932 
     34 O         -54.1253  -25.4844   16.9760 O.2       11 UNK        -0.5029 
     35 CA        -52.2325  -24.0301   16.6225 C.3       10 UNK         0.0280 
     36 CB        -52.6328  -23.3014   17.9227 C.3       10 UNK        -0.1976 
     37 N         -50.8147  -24.4106   16.6360 N.am      10 UNK        -0.4242 
     38 C         -50.2081  -25.3007   17.4377 C.2       10 UNK         0.5072 
     39 O         -50.7467  -25.8463   18.4018 O.2       10 UNK        -0.5224 
     40 CA        -48.7555  -25.6796   17.0897 C.3       9 UNK         0.0343 
     41 CB        -48.7266  -27.0352   16.3635 C.3       9 UNK        -0.2003 
     42 N         -48.0723  -24.6868   16.2573 N.am      9 UNK        -0.4272 
     43 C         -47.6572  -23.4842   16.6794 C.2       9 UNK         0.4988 
     44 O         -47.7360  -23.0997   17.8465 O.2       9 UNK        -0.5108 
     45 CA        -47.0914  -22.5389   15.6064 C.3       8 UNK         0.0248 
     46 CB        -45.6203  -22.8649   15.2999 C.3       8 UNK        -0.2001 
     47 N         -47.8788  -22.5794   14.3711 N.am      8 UNK        -0.4140 
     48 C         -49.1191  -22.0833   14.2476 C.2       8 UNK         0.5028 
     49 O         -49.7096  -21.4830   15.1453 O.2       8 UNK        -0.5428 
     50 CA        -49.8388  -22.3187   12.9099 C.3       7 UNK         0.0264 
     51 CB        -49.5752  -21.1521   11.9451 C.3       7 UNK        -0.1988 
     52 N         -49.4676  -23.5933   12.2832 N.am      7 UNK        -0.4454 
     53 C         -49.8762  -24.7837   12.7510 C.2       7 UNK         0.5027 
     54 O         -50.6000  -24.9036   13.7390 O.2       7 UNK        -0.5083 
     55 CA        -49.3728  -26.0609   12.0513 C.3       6 UNK         0.0844 
     56 C56       -50.2824  -26.4511   10.8620 C.3       14 UNK        -0.0967 
     57 S57       -49.8974  -28.1260   10.2386 S.3       14 UNK        -0.2604 
     58 C58       -51.3269  -29.0935   10.8208 C.3       14 UNK         0.0134 
     59 N         -47.9563  -25.9992   11.6829 N.am      6 UNK        -0.4116 
     60 C         -46.9419  -25.8778   12.5503 C.2       5 UNK         0.5034 
     61 O         -47.0910  -25.6868   13.7567 O.2       5 UNK        -0.5045 
     62 CA        -45.5237  -25.9782   11.9760 C.3       5 UNK         0.0224 
     63 CB        -45.1882  -27.4342   11.6118 C.3       5 UNK        -0.1978 
     64 N         -45.3895  -25.1343   10.7907 N.am      5 UNK        -0.4737 
     65 C         -44.8967  -23.8893   10.7983 C.2       4 UNK         0.5027 
     66 O         -44.4050  -23.3530   11.7913 O.2       4 UNK        -0.5211 
     67 CA        -44.9773  -23.0946    9.4802 C.3       4 UNK         0.0297 
     68 CB        -43.6762  -23.2551    8.6780 C.3       4 UNK        -0.1993 
     69 N         -46.1181  -23.4552    8.6307 N.am      4 UNK        -0.4486 
     70 C         -47.4040  -23.3435    8.9910 C.2       3 UNK         0.4961 
     71 O         -47.7771  -22.9249   10.0847 O.2       3 UNK        -0.5105 
     72 CA        -48.4603  -23.8342    7.9898 C.3       3 UNK         0.0299 
     73 CB        -48.7939  -22.7293    6.9758 C.3       3 UNK        -0.1972 
     74 N         -48.1333  -25.0721    7.2728 N.am      3 UNK        -0.4305 
     75 C         -47.6748  -26.2183    7.7964 C.2       2 UNK         0.5006 
     76 O         -47.2888  -26.3396    8.9599 O.2       2 UNK        -0.5106 
     77 CA        -47.7069  -27.4435    6.8650 C.3       2 UNK         0.0296 
     78 CB        -47.0300  -28.6782    7.4893 C.3       2 UNK        -0.2002 
     79 N         -49.0891  -27.7832    6.5154 N.am      2 UNK        -0.4032 
     80 C         -49.8353  -27.1430    5.6024 C.2       1 UNK         0.5000 
     81 O         -49.4041  -26.2178    4.9112 O.2       1 UNK        -0.5238 
     82 H82       -49.3565  -29.6822    4.2120 H         1 UNK         0.0889 
     83 H83       -50.8675  -29.4829    3.3032 H         1 UNK         0.0889 
     84 H84       -50.2605  -31.0878    3.6681 H         1 UNK         0.0889 
     85 H85       -52.1188  -29.0014    6.7705 H         1 UNK         0.3028 
     86 H86       -51.5181  -27.5669    4.3671 H         1 UNK         0.0864 
     87 H87       -52.0397  -25.5399    5.6817 H         1 UNK         0.0720 
     88 H88       -52.0318  -26.4483    7.1648 H         1 UNK         0.0720 
     89 H89       -55.7051  -27.2604    7.4831 H         1 UNK         0.0814 
     90 H90       -54.4471  -26.2202    8.1013 H         1 UNK         0.0814 
     91 H91       -52.7429  -27.1739    9.4897 H         1 UNK         0.1469 
     92 H92       -52.2511  -31.4280    9.7428 H         1 UNK         0.1381 
     93 H93       -55.1008  -29.7504    7.0146 H         1 UNK         0.1206 
     94 H94       -54.9816  -32.0781    7.1914 H         1 UNK         0.0813 
     95 H95       -53.3300  -32.5971    7.3619 H         1 UNK         0.0813 
     96 H96       -55.7603  -32.8729   11.3498 H         1 UNK         0.0638 
     97 H97       -54.5911  -31.6648   10.9946 H         1 UNK         0.0638 
     98 H98       -56.5310  -31.2291    8.9759 H         1 UNK         0.0568 
     99 H99       -58.7454  -29.9579   10.8000 H         1 UNK         0.3450 
    100 H100      -59.8694  -31.2909   10.8966 H         1 UNK         0.3450 
    101 H101      -56.1165  -29.2282    9.7009 H         1 UNK         0.2987 
    102 H102      -55.0565  -27.7031   11.0744 H         1 UNK         0.0766 
    103 H103      -56.6396  -25.9810   11.9984 H         1 UNK         0.0798 
    104 H104      -57.6547  -27.2567   12.6688 H         1 UNK         0.0798 
    105 H105      -57.4849  -27.0841   10.9256 H         1 UNK         0.0798 
    106 H106      -55.2771  -28.5874   13.8205 H         1 UNK         0.3198 
    107 H107      -54.1105  -27.5528   15.5184 H         1 UNK         0.0843 
    108 H108      -51.8078  -28.4894   15.6738 H         1 UNK         0.0831 
    109 H109      -51.4653  -28.0007   14.0176 H         1 UNK         0.0831 
    110 H110      -52.6669  -29.2454   14.3414 H         1 UNK         0.0831 
    111 H111      -51.9613  -25.6400   14.6807 H         1 UNK         0.3133 
    112 H112      -52.3482  -23.3233   15.7994 H         1 UNK         0.0566 
    113 H113      -51.9778  -22.4521   18.1171 H         1 UNK         0.0814 
    114 H114      -53.6512  -22.9172   17.8546 H         1 UNK         0.0814 
    115 H115      -52.5935  -23.9614   18.7897 H         1 UNK         0.0814 
    116 H116      -50.2808  -24.0792   15.8434 H         1 UNK         0.3091 
    117 H117      -48.2051  -25.7782   18.0276 H         1 UNK         0.0702 
    118 H118      -47.7045  -27.3548   16.1598 H         1 UNK         0.0785 
    119 H119      -49.2590  -26.9920   15.4123 H         1 UNK         0.0785 
    120 H120      -49.1969  -27.8135   16.9661 H         1 UNK         0.0785 
    121 H121      -47.8864  -24.9545   15.2932 H         1 UNK         0.2998 
    122 H122      -47.1357  -21.5218   16.0019 H         1 UNK         0.0697 
    123 H123      -45.2011  -22.1661   14.5756 H         1 UNK         0.0825 
    124 H124      -45.0118  -22.7993   16.2027 H         1 UNK         0.0825 
    125 H125      -45.4981  -23.8712   14.8988 H         1 UNK         0.0825 
    126 H126      -47.4787  -23.0770   13.5885 H         1 UNK         0.3029 
    127 H127      -50.9118  -22.3446   13.1145 H         1 UNK         0.0897 
    128 H128      -50.0745  -21.3053   10.9882 H         1 UNK         0.0792 
    129 H129      -49.9477  -20.2145   12.3598 H         1 UNK         0.0792 
    130 H130      -48.5102  -21.0189   11.7515 H         1 UNK         0.0792 
    131 H131      -48.8492  -23.5400   11.4752 H         1 UNK         0.3086 
    132 H132      -49.4572  -26.8582   12.7931 H         1 UNK         0.0583 
    133 H133      -51.3325  -26.4041   11.1557 H         1 UNK         0.1020 
    134 H134      -50.1679  -25.7420   10.0415 H         1 UNK         0.1020 
    135 H135      -50.9602  -30.0628   11.1618 H         1 UNK         0.0694 
    136 H136      -51.7827  -28.6212   11.6909 H         1 UNK         0.0694 
    137 H137      -47.7419  -26.1641   10.7014 H         1 UNK         0.2989 
    138 H138      -44.8257  -25.6545   12.7516 H         1 UNK         0.1055 
    139 H139      -45.2867  -28.0859   12.4811 H         1 UNK         0.0806 
    140 H140      -44.1624  -27.5241   11.2543 H         1 UNK         0.0806 
    141 H141      -45.8470  -27.8245   10.8347 H         1 UNK         0.0806 
    142 H142      -45.8341  -25.4756    9.9434 H         1 UNK         0.3061 
    143 H143      -45.0884  -22.0409    9.7451 H         1 UNK         0.0734 
    144 H144      -43.6748  -22.6230    7.7898 H         1 UNK         0.0832 
    145 H145      -42.8111  -22.9684    9.2779 H         1 UNK         0.0832 
    146 H146      -43.5231  -24.2869    8.3591 H         1 UNK         0.0832 
    147 H147      -45.9103  -23.8347    7.7184 H         1 UNK         0.3156 
    148 H148      -49.3663  -24.0396    8.5619 H         1 UNK         0.0589 
    149 H149      -47.9474  -22.5104    6.3238 H         1 UNK         0.0808 
    150 H150      -49.6386  -23.0098    6.3460 H         1 UNK         0.0808 
    151 H151      -49.0647  -21.8016    7.4824 H         1 UNK         0.0808 
    152 H152      -48.4447  -25.1200    6.3073 H         1 UNK         0.3098 
    153 H153      -47.1584  -27.1847    5.9569 H         1 UNK         0.0720 
    154 H154      -45.9928  -28.4641    7.7507 H         1 UNK         0.0791 
    155 H155      -47.0224  -29.5193    6.7959 H         1 UNK         0.0791 
    156 H156      -47.5348  -29.0000    8.4011 H         1 UNK         0.0791 
    157 H157      -49.5326  -28.4968    7.0771 H         1 UNK         0.3028 
@<TRIPOS>BOND
     1    1    2 1    
     2    1   82 1    
     3    1   83 1    
     4    1   84 1    
     5    2    3 2    
     6    2    4 am   BACKBONE|DICT|INTERRES
     7    4    5 1    
     8    4   85 1    
     9    5    6 1    
    10    5   80 1    
    11    5   86 1    
    12    6    7 1    
    13    6   87 1    
    14    6   88 1    
    15    7    8 1    
    16    8    9 1    
    17    8   89 1    
    18    8   90 1    
    19    9   10 ar   
    20    9   14 ar   
    21   10   11 ar   
    22   10   91 1    
    23   11   12 ar   
    24   11   58 1    
    25   12   13 ar   
    26   12   92 1    
    27   13   14 ar   
    28   13   15 1    
    29   14   93 1    
    30   15   16 1    
    31   15   94 1    
    32   15   95 1    
    33   16   17 1    
    34   17   18 1    
    35   17   96 1    
    36   17   97 1    
    37   18   19 1    
    38   18   22 1    
    39   18   98 1    
    40   19   20 am   BACKBONE|DICT|INTERRES
    41   19   21 2    
    42   20   99 1    
    43   20  100 1    
    44   22   23 am   BACKBONE|DICT|INTERRES
    45   22  101 1    
    46   23   24 2    
    47   23   25 1    
    48   25   26 1    
    49   25   27 1    
    50   25  102 1    
    51   26  103 1    
    52   26  104 1    
    53   26  105 1    
    54   27   28 am   BACKBONE|DICT|INTERRES
    55   27  106 1    
    56   28   29 2    
    57   28   30 1    
    58   30   31 1    
    59   30   32 1    
    60   30  107 1    
    61   31  108 1    
    62   31  109 1    
    63   31  110 1    
    64   32   33 am   BACKBONE|DICT|INTERRES
    65   32  111 1    
    66   33   34 2    
    67   33   35 1    
    68   35   36 1    
    69   35   37 1    
    70   35  112 1    
    71   36  113 1    
    72   36  114 1    
    73   36  115 1    
    74   37   38 am   BACKBONE|DICT|INTERRES
    75   37  116 1    
    76   38   39 2    
    77   38   40 1    
    78   40   41 1    
    79   40   42 1    
    80   40  117 1    
    81   41  118 1    
    82   41  119 1    
    83   41  120 1    
    84   42   43 am   BACKBONE|DICT|INTERRES
    85   42  121 1    
    86   43   44 2    
    87   43   45 1    
    88   45   46 1    
    89   45   47 1    
    90   45  122 1    
    91   46  123 1    
    92   46  124 1    
    93   46  125 1    
    94   47   48 am   BACKBONE|DICT|INTERRES
    95   47  126 1    
    96   48   49 2    
    97   48   50 1    
    98   50   51 1    
    99   50   52 1    
   100   50  127 1    
   101   51  128 1    
   102   51  129 1    
   103   51  130 1    
   104   52   53 am   BACKBONE|DICT|INTERRES
   105   52  131 1    
   106   53   54 2    
   107   53   55 1    
   108   55   56 1    
   109   55   59 1    
   110   55  132 1    
   111   56   57 1    
   112   56  133 1    
   113   56  134 1    
   114   57   58 1    
   115   58  135 1    
   116   58  136 1    
   117   59   60 am   BACKBONE|DICT|INTERRES
   118   59  137 1    
   119   60   61 2    
   120   60   62 1    
   121   62   63 1    
   122   62   64 1    
   123   62  138 1    
   124   63  139 1    
   125   63  140 1    
   126   63  141 1    
   127   64   65 am   BACKBONE|DICT|INTERRES
   128   64  142 1    
   129   65   66 2    
   130   65   67 1    
   131   67   68 1    
   132   67   69 1    
   133   67  143 1    
   134   68  144 1    
   135   68  145 1    
   136   68  146 1    
   137   69   70 am   BACKBONE|DICT|INTERRES
   138   69  147 1    
   139   70   71 2    
   140   70   72 1    
   141   72   73 1    
   142   72   74 1    
   143   72  148 1    
   144   73  149 1    
   145   73  150 1    
   146   73  151 1    
   147   74   75 am   BACKBONE|DICT|INTERRES
   148   74  152 1    
   149   75   76 2    
   150   75   77 1    
   151   77   78 1    
   152   77   79 1    
   153   77  153 1    
   154   78  154 1    
   155   78  155 1    
   156   78  156 1    
   157   79   80 am   BACKBONE|DICT|INTERRES
   158   79  157 1    
   159   80   81 2    
@<TRIPOS>SUBSTRUCTURE
     1 UNK         1 GROUP             0       ****    0 ROOT    
