@<TRIPOS>MOLECULE
3R207
157   159    1
SMALL
USER_CHARGES


@<TRIPOS>ATOM
      1 CA        -50.4435  -29.0706    2.8840 C.3       0 UNK        -0.1975 
      2 C         -50.7580  -27.5911    3.0479 C.2       0 UNK         0.4852 
      3 O         -50.7174  -26.8439    2.0700 O.2       0 UNK        -0.5216 
      4 N         -51.0670  -27.1624    4.2789 N.am      1 UNK        -0.4461 
      5 CA        -51.3820  -25.7717    4.6339 C.3       1 UNK         0.0864 
      6 C6        -52.2578  -25.6866    5.9123 C.3       14 UNK        -0.0898 
      7 S7        -51.5485  -26.5118    7.3816 S.3       14 UNK        -0.2598 
      8 C8        -52.5925  -28.0028    7.4899 C.3       14 UNK         0.0286 
      9 C9        -52.2277  -28.9002    8.6679 C.ar      14 UNK        -0.0844 
     10 C10       -50.9077  -29.3204    8.8682 C.ar      14 UNK        -0.0881 
     11 C11       -50.5849  -30.1726    9.9286 C.ar      14 UNK        -0.0643 
     12 C12       -51.5957  -30.6313   10.7766 C.ar      14 UNK        -0.0930 
     13 C13       -52.9175  -30.2226   10.5877 C.ar      14 UNK        -0.0827 
     14 C14       -53.2256  -29.3484    9.5400 C.ar      14 UNK        -0.1249 
     15 C15       -54.0071  -30.7084   11.5293 C.3       14 UNK         0.0141 
     16 S16       -55.2248  -31.7565   10.6768 S.3       14 UNK        -0.2313 
     17 C17       -56.3419  -32.1930   12.0513 C.3       14 UNK        -0.0915 
     18 CA        -57.5339  -31.2075   12.1891 C.3       13 UNK         0.0968 
     19 C         -58.6528  -31.7905   13.0998 C.2       13 UNK         0.5732 
     20 N         -59.0546  -31.1268   14.1783 N.am      13 UNK        -0.7310 
     21 O         -59.1846  -32.8602   12.8114 O.2       13 UNK        -0.5035 
     22 N         -57.0733  -29.8827   12.6296 N.am      13 UNK        -0.4233 
     23 C         -57.3798  -28.7111   12.0699 C.2       13 UNK         0.4989 
     24 O         -58.0810  -28.5966   11.0641 O.2       13 UNK        -0.4996 
     25 CA        -56.8169  -27.4343   12.7292 C.3       12 UNK         0.0216 
     26 CB        -57.8575  -26.8222   13.6871 C.3       12 UNK        -0.1964 
     27 N         -55.5061  -27.5455   13.3971 N.am      12 UNK        -0.4276 
     28 C         -55.1496  -28.2771   14.4653 C.2       12 UNK         0.5020 
     29 O         -55.8730  -29.1239   14.9914 O.2       12 UNK        -0.5489 
     30 CA        -53.7456  -28.0263   15.0509 C.3       11 UNK         0.0294 
     31 CB        -52.7295  -29.0229   14.4696 C.3       11 UNK        -0.2019 
     32 N         -53.2454  -26.6578   14.8661 N.am      11 UNK        -0.4493 
     33 C         -53.8343  -25.5534   15.3524 C.2       11 UNK         0.4932 
     34 O         -54.8695  -25.5655   16.0208 O.2       11 UNK        -0.5029 
     35 CA        -53.1383  -24.2185   15.0331 C.3       10 UNK         0.0280 
     36 CB        -53.8932  -22.9889   15.5815 C.3       10 UNK        -0.1976 
     37 N         -51.7378  -24.2064   15.4631 N.am      10 UNK        -0.4242 
     38 C         -51.2578  -24.3620   16.7076 C.2       10 UNK         0.5072 
     39 O         -51.9652  -24.5080   17.7055 O.2       10 UNK        -0.5224 
     40 CA        -49.7265  -24.3711   16.8866 C.3       9 UNK         0.0343 
     41 CB        -49.2496  -25.7811   17.2741 C.3       9 UNK        -0.2003 
     42 N         -48.9870  -23.9291   15.7010 N.am      9 UNK        -0.4272 
     43 C         -48.9021  -22.6625   15.2700 C.2       9 UNK         0.4988 
     44 O         -49.3695  -21.6990   15.8775 O.2       9 UNK        -0.5108 
     45 CA        -48.2209  -22.4394   13.9069 C.3       8 UNK         0.0248 
     46 CB        -46.6946  -22.3593   14.0653 C.3       8 UNK        -0.2001 
     47 N         -48.5615  -23.4689   12.9184 N.am      8 UNK        -0.4140 
     48 C         -49.7992  -23.7147   12.4620 C.2       8 UNK         0.5028 
     49 O         -50.7945  -23.0763   12.8011 O.2       8 UNK        -0.5428 
     50 CA        -49.9673  -24.9087   11.5134 C.3       7 UNK         0.0264 
     51 CB        -49.5641  -24.5360   10.0801 C.3       7 UNK        -0.1988 
     52 N         -49.1909  -26.0615   11.9674 N.am      7 UNK        -0.4454 
     53 C         -49.5377  -26.8412   13.0011 C.2       7 UNK         0.5027 
     54 O         -50.5781  -26.6906   13.6460 O.2       7 UNK        -0.5083 
     55 CA        -48.5433  -27.9522   13.4088 C.3       6 UNK         0.0844 
     56 C56       -48.8095  -29.2773   12.6493 C.3       14 UNK        -0.0967 
     57 S57       -48.1649  -29.2823   10.9351 S.3       14 UNK        -0.2604 
     58 C58       -49.1439  -30.6013   10.1544 C.3       14 UNK         0.0134 
     59 N         -47.1423  -27.5361   13.2931 N.am      6 UNK        -0.4116 
     60 C         -46.5532  -26.5640   13.9992 C.2       5 UNK         0.5034 
     61 O         -47.1133  -25.9256   14.8872 O.2       5 UNK        -0.5045 
     62 CA        -45.1079  -26.2056   13.6083 C.3       5 UNK         0.0224 
     63 CB        -44.1100  -27.1098   14.3487 C.3       5 UNK        -0.1978 
     64 N         -44.8483  -26.2644   12.1629 N.am      5 UNK        -0.4737 
     65 C         -45.5188  -25.5640   11.2381 C.2       4 UNK         0.5027 
     66 O         -46.4556  -24.8093   11.5096 O.2       4 UNK        -0.5211 
     67 CA        -45.1037  -25.7889    9.7747 C.3       4 UNK         0.0297 
     68 CB        -45.5206  -27.1897    9.2968 C.3       4 UNK        -0.1993 
     69 N         -45.7323  -24.8067    8.8956 N.am      4 UNK        -0.4486 
     70 C         -45.3256  -23.5505    8.6955 C.2       3 UNK         0.4961 
     71 O         -44.2723  -23.0956    9.1461 O.2       3 UNK        -0.5105 
     72 CA        -46.2570  -22.6638    7.8374 C.3       3 UNK         0.0299 
     73 CB        -45.6759  -21.2581    7.5939 C.3       3 UNK        -0.1972 
     74 N         -46.6067  -23.2636    6.5422 N.am      3 UNK        -0.4305 
     75 C         -47.4543  -24.2841    6.3535 C.2       2 UNK         0.5006 
     76 O         -48.0184  -24.8806    7.2729 O.2       2 UNK        -0.5106 
     77 CA        -47.6548  -24.7553    4.9049 C.3       2 UNK         0.0296 
     78 CB        -46.5197  -25.7069    4.4907 C.3       2 UNK        -0.2002 
     79 N         -48.9328  -25.4511    4.7479 N.am      2 UNK        -0.4032 
     80 C         -50.1353  -24.8580    4.7129 C.2       1 UNK         0.5000 
     81 O         -50.2879  -23.6341    4.7213 O.2       1 UNK        -0.5238 
     82 H82       -50.5198  -29.6118    3.8270 H         1 UNK         0.0889 
     83 H83       -49.4318  -29.1989    2.5000 H         1 UNK         0.0889 
     84 H84       -51.1366  -29.5247    2.1763 H         1 UNK         0.0889 
     85 H85       -51.0746  -27.8150    5.0495 H         1 UNK         0.3028 
     86 H86       -51.9844  -25.3607    3.8204 H         1 UNK         0.0864 
     87 H87       -52.4552  -24.6445    6.1711 H         1 UNK         0.0720 
     88 H88       -53.2386  -26.1162    5.7029 H         1 UNK         0.0720 
     89 H89       -52.5032  -28.5804    6.5694 H         1 UNK         0.0814 
     90 H90       -53.6359  -27.6910    7.5598 H         1 UNK         0.0814 
     91 H91       -50.1265  -28.9759    8.2044 H         1 UNK         0.1469 
     92 H92       -51.3500  -31.3002   11.5900 H         1 UNK         0.1381 
     93 H93       -54.2510  -29.0357    9.3953 H         1 UNK         0.1206 
     94 H94       -54.5024  -29.8387   11.9547 H         1 UNK         0.0813 
     95 H95       -53.5799  -31.2653   12.3644 H         1 UNK         0.0813 
     96 H96       -55.7782  -32.2558   12.9839 H         1 UNK         0.0638 
     97 H97       -56.6998  -33.2039   11.8474 H         1 UNK         0.0638 
     98 H98       -57.9964  -31.1158   11.2049 H         1 UNK         0.0568 
     99 H99       -58.6280  -30.2497   14.4301 H         1 UNK         0.3450 
    100 H100      -59.7862  -31.5162   14.7517 H         1 UNK         0.3450 
    101 H101      -56.5551  -29.8517   13.5058 H         1 UNK         0.2987 
    102 H102      -56.6652  -26.7215   11.9169 H         1 UNK         0.0766 
    103 H103      -58.0608  -27.4744   14.5371 H         1 UNK         0.0798 
    104 H104      -58.8059  -26.6480   13.1769 H         1 UNK         0.0798 
    105 H105      -57.5188  -25.8624   14.0778 H         1 UNK         0.0798 
    106 H106      -54.7969  -26.9236   13.0346 H         1 UNK         0.3198 
    107 H107      -53.8154  -28.2022   16.1264 H         1 UNK         0.0843 
    108 H108      -52.5563  -28.8496   13.4068 H         1 UNK         0.0831 
    109 H109      -53.0756  -30.0507   14.5865 H         1 UNK         0.0831 
    110 H110      -51.7683  -28.9476   14.9785 H         1 UNK         0.0831 
    111 H111      -52.3585  -26.5636   14.3741 H         1 UNK         0.3133 
    112 H112      -53.1240  -24.1334   13.9456 H         1 UNK         0.0566 
    113 H113      -54.9073  -22.9448   15.1824 H         1 UNK         0.0814 
    114 H114      -53.9735  -23.0107   16.6688 H         1 UNK         0.0814 
    115 H115      -53.3937  -22.0616   15.3006 H         1 UNK         0.0814 
    116 H116      -51.0686  -24.0746   14.7145 H         1 UNK         0.3091 
    117 H117      -49.4911  -23.6923   17.7088 H         1 UNK         0.0702 
    118 H118      -48.1781  -25.7962   17.4747 H         1 UNK         0.0785 
    119 H119      -49.4533  -26.5042   16.4831 H         1 UNK         0.0785 
    120 H120      -49.7518  -26.1330   18.1763 H         1 UNK         0.0785 
    121 H121      -48.4877  -24.6523   15.1890 H         1 UNK         0.2998 
    122 H122      -48.5726  -21.4834   13.5138 H         1 UNK         0.0697 
    123 H123      -46.2849  -23.2775   14.4853 H         1 UNK         0.0825 
    124 H124      -46.4154  -21.5435   14.7333 H         1 UNK         0.0825 
    125 H125      -46.2034  -22.1797   13.1086 H         1 UNK         0.0825 
    126 H126      -47.7924  -24.0191   12.5397 H         1 UNK         0.3029 
    127 H127      -51.0234  -25.1884   11.5032 H         1 UNK         0.0897 
    128 H128      -48.5360  -24.1799   10.0204 H         1 UNK         0.0792 
    129 H129      -50.2045  -23.7456    9.6874 H         1 UNK         0.0792 
    130 H130      -49.6581  -25.3905    9.4104 H         1 UNK         0.0792 
    131 H131      -48.2965  -26.2112   11.5211 H         1 UNK         0.3086 
    132 H132      -48.7263  -28.1455   14.4680 H         1 UNK         0.0583 
    133 H133      -48.3320  -30.1006   13.1827 H         1 UNK         0.1020 
    134 H134      -49.8755  -29.5086   12.6532 H         1 UNK         0.1020 
    135 H135      -48.6889  -30.8567    9.1963 H         1 UNK         0.0694 
    136 H136      -49.0940  -31.5032   10.7666 H         1 UNK         0.0694 
    137 H137      -46.6092  -27.9944   12.5684 H         1 UNK         0.2989 
    138 H138      -44.9339  -25.1762   13.9273 H         1 UNK         0.1055 
    139 H139      -44.2725  -27.0688   15.4269 H         1 UNK         0.0806 
    140 H140      -43.0811  -26.7980   14.1677 H         1 UNK         0.0806 
    141 H141      -44.2041  -28.1530   14.0446 H         1 UNK         0.0806 
    142 H142      -44.0946  -26.8667   11.8625 H         1 UNK         0.3061 
    143 H143      -44.0182  -25.6934    9.7041 H         1 UNK         0.0734 
    144 H144      -45.1840  -27.3733    8.2762 H         1 UNK         0.0832 
    145 H145      -45.0917  -27.9743    9.9212 H         1 UNK         0.0832 
    146 H146      -46.6042  -27.3122    9.3132 H         1 UNK         0.0832 
    147 H147      -46.6305  -25.0612    8.4900 H         1 UNK         0.3156 
    148 H148      -47.1790  -22.5395    8.4096 H         1 UNK         0.0589 
    149 H149      -44.7454  -21.2986    7.0263 H         1 UNK         0.0808 
    150 H150      -46.3769  -20.6269    7.0473 H         1 UNK         0.0808 
    151 H151      -45.4611  -20.7544    8.5375 H         1 UNK         0.0808 
    152 H152      -46.1478  -22.8679    5.7340 H         1 UNK         0.3098 
    153 H153      -47.6474  -23.8843    4.2461 H         1 UNK         0.0720 
    154 H154      -46.6409  -26.0446    3.4612 H         1 UNK         0.0791 
    155 H155      -46.4786  -26.5893    5.1312 H         1 UNK         0.0791 
    156 H156      -45.5489  -25.2136    4.5552 H         1 UNK         0.0791 
    157 H157      -48.9068  -26.4587    4.7781 H         1 UNK         0.3028 
@<TRIPOS>BOND
     1    1    2 1    
     2    1   82 1    
     3    1   83 1    
     4    1   84 1    
     5    2    3 2    
     6    2    4 am   BACKBONE|DICT|INTERRES
     7    4    5 1    
     8    4   85 1    
     9    5    6 1    
    10    5   80 1    
    11    5   86 1    
    12    6    7 1    
    13    6   87 1    
    14    6   88 1    
    15    7    8 1    
    16    8    9 1    
    17    8   89 1    
    18    8   90 1    
    19    9   10 ar   
    20    9   14 ar   
    21   10   11 ar   
    22   10   91 1    
    23   11   12 ar   
    24   11   58 1    
    25   12   13 ar   
    26   12   92 1    
    27   13   14 ar   
    28   13   15 1    
    29   14   93 1    
    30   15   16 1    
    31   15   94 1    
    32   15   95 1    
    33   16   17 1    
    34   17   18 1    
    35   17   96 1    
    36   17   97 1    
    37   18   19 1    
    38   18   22 1    
    39   18   98 1    
    40   19   20 am   BACKBONE|DICT|INTERRES
    41   19   21 2    
    42   20   99 1    
    43   20  100 1    
    44   22   23 am   BACKBONE|DICT|INTERRES
    45   22  101 1    
    46   23   24 2    
    47   23   25 1    
    48   25   26 1    
    49   25   27 1    
    50   25  102 1    
    51   26  103 1    
    52   26  104 1    
    53   26  105 1    
    54   27   28 am   BACKBONE|DICT|INTERRES
    55   27  106 1    
    56   28   29 2    
    57   28   30 1    
    58   30   31 1    
    59   30   32 1    
    60   30  107 1    
    61   31  108 1    
    62   31  109 1    
    63   31  110 1    
    64   32   33 am   BACKBONE|DICT|INTERRES
    65   32  111 1    
    66   33   34 2    
    67   33   35 1    
    68   35   36 1    
    69   35   37 1    
    70   35  112 1    
    71   36  113 1    
    72   36  114 1    
    73   36  115 1    
    74   37   38 am   BACKBONE|DICT|INTERRES
    75   37  116 1    
    76   38   39 2    
    77   38   40 1    
    78   40   41 1    
    79   40   42 1    
    80   40  117 1    
    81   41  118 1    
    82   41  119 1    
    83   41  120 1    
    84   42   43 am   BACKBONE|DICT|INTERRES
    85   42  121 1    
    86   43   44 2    
    87   43   45 1    
    88   45   46 1    
    89   45   47 1    
    90   45  122 1    
    91   46  123 1    
    92   46  124 1    
    93   46  125 1    
    94   47   48 am   BACKBONE|DICT|INTERRES
    95   47  126 1    
    96   48   49 2    
    97   48   50 1    
    98   50   51 1    
    99   50   52 1    
   100   50  127 1    
   101   51  128 1    
   102   51  129 1    
   103   51  130 1    
   104   52   53 am   BACKBONE|DICT|INTERRES
   105   52  131 1    
   106   53   54 2    
   107   53   55 1    
   108   55   56 1    
   109   55   59 1    
   110   55  132 1    
   111   56   57 1    
   112   56  133 1    
   113   56  134 1    
   114   57   58 1    
   115   58  135 1    
   116   58  136 1    
   117   59   60 am   BACKBONE|DICT|INTERRES
   118   59  137 1    
   119   60   61 2    
   120   60   62 1    
   121   62   63 1    
   122   62   64 1    
   123   62  138 1    
   124   63  139 1    
   125   63  140 1    
   126   63  141 1    
   127   64   65 am   BACKBONE|DICT|INTERRES
   128   64  142 1    
   129   65   66 2    
   130   65   67 1    
   131   67   68 1    
   132   67   69 1    
   133   67  143 1    
   134   68  144 1    
   135   68  145 1    
   136   68  146 1    
   137   69   70 am   BACKBONE|DICT|INTERRES
   138   69  147 1    
   139   70   71 2    
   140   70   72 1    
   141   72   73 1    
   142   72   74 1    
   143   72  148 1    
   144   73  149 1    
   145   73  150 1    
   146   73  151 1    
   147   74   75 am   BACKBONE|DICT|INTERRES
   148   74  152 1    
   149   75   76 2    
   150   75   77 1    
   151   77   78 1    
   152   77   79 1    
   153   77  153 1    
   154   78  154 1    
   155   78  155 1    
   156   78  156 1    
   157   79   80 am   BACKBONE|DICT|INTERRES
   158   79  157 1    
   159   80   81 2    
@<TRIPOS>SUBSTRUCTURE
     1 UNK         1 GROUP             0       ****    0 ROOT    
