@<TRIPOS>MOLECULE
3R207
157   159    1
SMALL
USER_CHARGES


@<TRIPOS>ATOM
      1 CA        -46.2910  -31.6735    6.1913 C.3       0 UNK        -0.1975 
      2 C         -47.3019  -30.5426    6.3038 C.2       0 UNK         0.4852 
      3 O         -47.3433  -29.8611    7.3272 O.2       0 UNK        -0.5216 
      4 N         -48.1035  -30.3232    5.2524 N.am      1 UNK        -0.4461 
      5 CA        -49.1731  -29.3192    5.1226 C.3       1 UNK         0.0864 
      6 C6        -50.2791  -29.4542    6.2055 C.3       14 UNK        -0.0898 
      7 S7        -51.9241  -29.0298    5.5469 S.3       14 UNK        -0.2598 
      8 C8        -53.0149  -29.7651    6.8056 C.3       14 UNK         0.0286 
      9 C9        -52.9770  -28.9969    8.1194 C.ar      14 UNK        -0.0844 
     10 C10       -53.4058  -27.6680    8.1655 C.ar      14 UNK        -0.0881 
     11 C11       -53.3966  -26.9533    9.3663 C.ar      14 UNK        -0.0643 
     12 C12       -52.9948  -27.5993   10.5412 C.ar      14 UNK        -0.0930 
     13 C13       -52.5384  -28.9211   10.5059 C.ar      14 UNK        -0.0827 
     14 C14       -52.5279  -29.6128    9.2903 C.ar      14 UNK        -0.1249 
     15 C15       -51.9979  -29.5816   11.7663 C.3       14 UNK         0.0141 
     16 S16       -52.8959  -31.1027   12.2120 S.3       14 UNK        -0.2313 
     17 C17       -54.2663  -30.4477   13.2207 C.3       14 UNK        -0.0915 
     18 CA        -55.5844  -30.2256   12.4191 C.3       13 UNK         0.0968 
     19 C         -56.4322  -31.5139   12.1842 C.2       13 UNK         0.5732 
     20 N         -55.8020  -32.6672   12.0098 N.am      13 UNK        -0.7310 
     21 O         -57.6598  -31.4742   12.1083 O.2       13 UNK        -0.5035 
     22 N         -56.3675  -29.1144   12.9758 N.am      13 UNK        -0.4233 
     23 C         -56.9039  -29.0507   14.2010 C.2       13 UNK         0.4989 
     24 O         -56.8056  -29.9466   15.0422 O.2       13 UNK        -0.4996 
     25 CA        -57.6521  -27.7460   14.5505 C.3       12 UNK         0.0216 
     26 CB        -58.1816  -27.7312   15.9974 C.3       12 UNK        -0.1964 
     27 N         -56.8119  -26.5623   14.3427 N.am      12 UNK        -0.4276 
     28 C         -56.5243  -26.0139   13.1553 C.2       12 UNK         0.5020 
     29 O         -56.9896  -26.4246   12.0907 O.2       12 UNK        -0.5489 
     30 CA        -55.5400  -24.8336   13.1338 C.3       11 UNK         0.0294 
     31 CB        -56.2944  -23.5048   12.9680 C.3       11 UNK        -0.2019 
     32 N         -54.6472  -24.7424   14.2949 N.am      11 UNK        -0.4493 
     33 C         -53.6886  -25.6267   14.6057 C.2       11 UNK         0.4932 
     34 O         -53.5236  -26.6955   14.0149 O.2       11 UNK        -0.5029 
     35 CA        -52.7689  -25.2153   15.7683 C.3       10 UNK         0.0280 
     36 CB        -53.4668  -25.3467   17.1387 C.3       10 UNK        -0.1976 
     37 N         -51.4723  -25.9018   15.7077 N.am      10 UNK        -0.4242 
     38 C         -51.1439  -27.1387   16.1076 C.2       10 UNK         0.5072 
     39 O         -51.8842  -27.8853   16.7501 O.2       10 UNK        -0.5224 
     40 CA        -49.7410  -27.6521   15.7311 C.3       9 UNK         0.0343 
     41 CB        -49.8349  -28.7068   14.6181 C.3       9 UNK        -0.2003 
     42 N         -48.8011  -26.6078   15.3083 N.am      9 UNK        -0.4272 
     43 C         -48.1019  -25.8323   16.1481 C.2       9 UNK         0.4988 
     44 O         -48.2346  -25.8563   17.3723 O.2       9 UNK        -0.5108 
     45 CA        -47.0552  -24.8927   15.5229 C.3       8 UNK         0.0248 
     46 CB        -45.8282  -25.6855   15.0421 C.3       8 UNK        -0.2001 
     47 N         -47.5873  -24.0944   14.4179 N.am      8 UNK        -0.4140 
     48 C         -48.4520  -23.0809   14.5647 C.2       8 UNK         0.5028 
     49 O         -48.8606  -22.6799   15.6554 O.2       8 UNK        -0.5428 
     50 CA        -48.9666  -22.4068   13.2788 C.3       7 UNK         0.0264 
     51 CB        -47.9836  -21.3283   12.7969 C.3       7 UNK        -0.1988 
     52 N         -49.2418  -23.3503   12.1901 N.am      7 UNK        -0.4454 
     53 C         -50.1338  -24.3492   12.2678 C.2       7 UNK         0.5027 
     54 O         -50.8169  -24.5625   13.2675 O.2       7 UNK        -0.5083 
     55 CA        -50.2475  -25.3065   11.0597 C.3       6 UNK         0.0844 
     56 C56       -51.0992  -24.7138    9.9056 C.3       14 UNK        -0.0967 
     57 S57       -52.8278  -24.3805   10.4079 S.3       14 UNK        -0.2604 
     58 C58       -53.8311  -25.4899    9.3591 C.3       14 UNK         0.0134 
     59 N         -48.9297  -25.7599   10.6055 N.am      6 UNK        -0.4116 
     60 C         -48.0468  -26.4209   11.3712 C.2       5 UNK         0.5034 
     61 O         -48.2724  -26.7948   12.5208 O.2       5 UNK        -0.5045 
     62 CA        -46.6440  -26.6358   10.7887 C.3       5 UNK         0.0224 
     63 CB        -46.6175  -27.8352    9.8304 C.3       5 UNK        -0.1978 
     64 N         -46.1494  -25.4311   10.1192 N.am      5 UNK        -0.4737 
     65 C         -45.8289  -24.2981   10.7616 C.2       4 UNK         0.5027 
     66 O         -45.8558  -24.1766   11.9858 O.2       4 UNK        -0.5211 
     67 CA        -45.4565  -23.0874    9.8894 C.3       4 UNK         0.0297 
     68 CB        -43.9654  -23.1275    9.5204 C.3       4 UNK        -0.1993 
     69 N         -46.2636  -23.0005    8.6694 N.am      4 UNK        -0.4486 
     70 C         -47.5847  -22.7691    8.6467 C.2       3 UNK         0.4961 
     71 O         -48.2591  -22.5496    9.6513 O.2       3 UNK        -0.5105 
     72 CA        -48.2790  -22.8537    7.2764 C.3       3 UNK         0.0299 
     73 CB        -48.1932  -21.5071    6.5412 C.3       3 UNK        -0.1972 
     74 N         -47.7321  -23.9193    6.4293 N.am      3 UNK        -0.4305 
     75 C         -47.7948  -25.2244    6.7264 C.2       2 UNK         0.5006 
     76 O         -48.3508  -25.6707    7.7332 O.2       2 UNK        -0.5106 
     77 CA        -47.0310  -26.1691    5.7884 C.3       2 UNK         0.0296 
     78 CB        -45.5682  -26.3041    6.2442 C.3       2 UNK        -0.2002 
     79 N         -47.6400  -27.4968    5.7677 N.am      2 UNK        -0.4032 
     80 C         -48.6642  -27.8639    4.9898 C.2       1 UNK         0.5000 
     81 O         -49.1829  -27.1159    4.1580 O.2       1 UNK        -0.5238 
     82 H82       -46.3592  -32.1891    5.2335 H         1 UNK         0.0889 
     83 H83       -46.4580  -32.4038    6.9825 H         1 UNK         0.0889 
     84 H84       -45.2791  -31.2830    6.2959 H         1 UNK         0.0889 
     85 H85       -47.9817  -30.9038    4.4337 H         1 UNK         0.3028 
     86 H86       -49.6222  -29.5602    4.1573 H         1 UNK         0.0864 
     87 H87       -50.3288  -30.4844    6.5615 H         1 UNK         0.0720 
     88 H88       -50.0650  -28.8446    7.0864 H         1 UNK         0.0720 
     89 H89       -52.7477  -30.8127    6.9528 H         1 UNK         0.0814 
     90 H90       -54.0381  -29.7627    6.4272 H         1 UNK         0.0814 
     91 H91       -53.7371  -27.1876    7.2548 H         1 UNK         0.1469 
     92 H92       -53.0030  -27.0585   11.4776 H         1 UNK         0.1381 
     93 H93       -52.1740  -30.6344    9.2610 H         1 UNK         0.1206 
     94 H94       -52.0249  -28.8852   12.6043 H         1 UNK         0.0813 
     95 H95       -50.9477  -29.8287   11.6060 H         1 UNK         0.0813 
     96 H96       -54.4345  -31.1216   14.0625 H         1 UNK         0.0638 
     97 H97       -53.9344  -29.5102   13.6698 H         1 UNK         0.0638 
     98 H98       -55.3154  -29.8805   11.4203 H         1 UNK         0.0568 
     99 H99       -56.3352  -33.5049   11.8386 H         1 UNK         0.3450 
    100 H100      -54.7939  -32.7013   12.0445 H         1 UNK         0.3450 
    101 H101      -56.5202  -28.3211   12.3607 H         1 UNK         0.2987 
    102 H102      -58.5142  -27.6843   13.8827 H         1 UNK         0.0766 
    103 H103      -58.7471  -26.8224   16.2042 H         1 UNK         0.0798 
    104 H104      -57.3717  -27.7965   16.7252 H         1 UNK         0.0798 
    105 H105      -58.8511  -28.5736   16.1775 H         1 UNK         0.0798 
    106 H106      -56.3481  -26.1858   15.1565 H         1 UNK         0.3198 
    107 H107      -54.9118  -24.9785   12.2551 H         1 UNK         0.0843 
    108 H108      -56.9197  -23.2835   13.8338 H         1 UNK         0.0831 
    109 H109      -56.9466  -23.5330   12.0937 H         1 UNK         0.0831 
    110 H110      -55.6052  -22.6721   12.8255 H         1 UNK         0.0831 
    111 H111      -54.7108  -23.8945   14.8403 H         1 UNK         0.3133 
    112 H112      -52.5265  -24.1612   15.6237 H         1 UNK         0.0566 
    113 H113      -52.7804  -25.1305   17.9574 H         1 UNK         0.0814 
    114 H114      -54.2985  -24.6466   17.2219 H         1 UNK         0.0814 
    115 H115      -53.8753  -26.3455   17.2956 H         1 UNK         0.0814 
    116 H116      -50.8110  -25.4401   15.0912 H         1 UNK         0.3091 
    117 H117      -49.3356  -28.1433   16.6184 H         1 UNK         0.0702 
    118 H118      -48.8714  -29.1856   14.4435 H         1 UNK         0.0785 
    119 H119      -50.5496  -29.4918   14.8699 H         1 UNK         0.0785 
    120 H120      -50.1555  -28.2551   13.6805 H         1 UNK         0.0785 
    121 H121      -48.6175  -26.5453   14.3079 H         1 UNK         0.2998 
    122 H122      -46.7213  -24.2047   16.3026 H         1 UNK         0.0697 
    123 H123      -46.0797  -26.3720   14.2330 H         1 UNK         0.0825 
    124 H124      -45.4022  -26.2773   15.8533 H         1 UNK         0.0825 
    125 H125      -45.0447  -25.0194   14.6800 H         1 UNK         0.0825 
    126 H126      -47.2492  -24.3144   13.4861 H         1 UNK         0.3029 
    127 H127      -49.9110  -21.9169   13.5256 H         1 UNK         0.0897 
    128 H128      -47.0194  -21.7552   12.5211 H         1 UNK         0.0792 
    129 H129      -47.8015  -20.5895   13.5785 H         1 UNK         0.0792 
    130 H130      -48.3735  -20.7943   11.9300 H         1 UNK         0.0792 
    131 H131      -48.7530  -23.1928   11.3104 H         1 UNK         0.3086 
    132 H132      -50.7569  -26.2012   11.4207 H         1 UNK         0.0583 
    133 H133      -50.6613  -23.7834    9.5419 H         1 UNK         0.1020 
    134 H134      -51.0958  -25.3955    9.0534 H         1 UNK         0.1020 
    135 H135      -54.8693  -25.4356    9.6893 H         1 UNK         0.0694 
    136 H136      -53.8104  -25.0936    8.3427 H         1 UNK         0.0694 
    137 H137      -48.6708  -25.5385    9.6483 H         1 UNK         0.2989 
    138 H138      -45.9727  -26.8568   11.6219 H         1 UNK         0.1055 
    139 H139      -46.9439  -28.7443   10.3373 H         1 UNK         0.0806 
    140 H140      -45.6132  -28.0224    9.4509 H         1 UNK         0.0806 
    141 H141      -47.2791  -27.6919    8.9768 H         1 UNK         0.0806 
    142 H142      -46.1467  -25.4338    9.1107 H         1 UNK         0.3061 
    143 H143      -45.6387  -22.1857   10.4779 H         1 UNK         0.0734 
    144 H144      -43.6682  -22.2350    8.9693 H         1 UNK         0.0832 
    145 H145      -43.3449  -23.1733   10.4167 H         1 UNK         0.0832 
    146 H146      -43.7200  -23.9978    8.9104 H         1 UNK         0.0832 
    147 H147      -45.7887  -23.1556    7.7925 H         1 UNK         0.3156 
    148 H148      -49.3332  -23.0774    7.4532 H         1 UNK         0.0589 
    149 H149      -47.1629  -21.2343    6.3094 H         1 UNK         0.0808 
    150 H150      -48.7540  -21.5287    5.6066 H         1 UNK         0.0808 
    151 H151      -48.6132  -20.7047    7.1497 H         1 UNK         0.0808 
    152 H152      -47.2556  -23.6318    5.5860 H         1 UNK         0.3098 
    153 H153      -47.0442  -25.7527    4.7788 H         1 UNK         0.0720 
    154 H154      -45.0033  -26.9444    5.5662 H         1 UNK         0.0791 
    155 H155      -45.4914  -26.7325    7.2437 H         1 UNK         0.0791 
    156 H156      -45.0671  -25.3355    6.2619 H         1 UNK         0.0791 
    157 H157      -47.3308  -28.1668    6.4670 H         1 UNK         0.3028 
@<TRIPOS>BOND
     1    1    2 1    
     2    1   82 1    
     3    1   83 1    
     4    1   84 1    
     5    2    3 2    
     6    2    4 am   BACKBONE|DICT|INTERRES
     7    4    5 1    
     8    4   85 1    
     9    5    6 1    
    10    5   80 1    
    11    5   86 1    
    12    6    7 1    
    13    6   87 1    
    14    6   88 1    
    15    7    8 1    
    16    8    9 1    
    17    8   89 1    
    18    8   90 1    
    19    9   10 ar   
    20    9   14 ar   
    21   10   11 ar   
    22   10   91 1    
    23   11   12 ar   
    24   11   58 1    
    25   12   13 ar   
    26   12   92 1    
    27   13   14 ar   
    28   13   15 1    
    29   14   93 1    
    30   15   16 1    
    31   15   94 1    
    32   15   95 1    
    33   16   17 1    
    34   17   18 1    
    35   17   96 1    
    36   17   97 1    
    37   18   19 1    
    38   18   22 1    
    39   18   98 1    
    40   19   20 am   BACKBONE|DICT|INTERRES
    41   19   21 2    
    42   20   99 1    
    43   20  100 1    
    44   22   23 am   BACKBONE|DICT|INTERRES
    45   22  101 1    
    46   23   24 2    
    47   23   25 1    
    48   25   26 1    
    49   25   27 1    
    50   25  102 1    
    51   26  103 1    
    52   26  104 1    
    53   26  105 1    
    54   27   28 am   BACKBONE|DICT|INTERRES
    55   27  106 1    
    56   28   29 2    
    57   28   30 1    
    58   30   31 1    
    59   30   32 1    
    60   30  107 1    
    61   31  108 1    
    62   31  109 1    
    63   31  110 1    
    64   32   33 am   BACKBONE|DICT|INTERRES
    65   32  111 1    
    66   33   34 2    
    67   33   35 1    
    68   35   36 1    
    69   35   37 1    
    70   35  112 1    
    71   36  113 1    
    72   36  114 1    
    73   36  115 1    
    74   37   38 am   BACKBONE|DICT|INTERRES
    75   37  116 1    
    76   38   39 2    
    77   38   40 1    
    78   40   41 1    
    79   40   42 1    
    80   40  117 1    
    81   41  118 1    
    82   41  119 1    
    83   41  120 1    
    84   42   43 am   BACKBONE|DICT|INTERRES
    85   42  121 1    
    86   43   44 2    
    87   43   45 1    
    88   45   46 1    
    89   45   47 1    
    90   45  122 1    
    91   46  123 1    
    92   46  124 1    
    93   46  125 1    
    94   47   48 am   BACKBONE|DICT|INTERRES
    95   47  126 1    
    96   48   49 2    
    97   48   50 1    
    98   50   51 1    
    99   50   52 1    
   100   50  127 1    
   101   51  128 1    
   102   51  129 1    
   103   51  130 1    
   104   52   53 am   BACKBONE|DICT|INTERRES
   105   52  131 1    
   106   53   54 2    
   107   53   55 1    
   108   55   56 1    
   109   55   59 1    
   110   55  132 1    
   111   56   57 1    
   112   56  133 1    
   113   56  134 1    
   114   57   58 1    
   115   58  135 1    
   116   58  136 1    
   117   59   60 am   BACKBONE|DICT|INTERRES
   118   59  137 1    
   119   60   61 2    
   120   60   62 1    
   121   62   63 1    
   122   62   64 1    
   123   62  138 1    
   124   63  139 1    
   125   63  140 1    
   126   63  141 1    
   127   64   65 am   BACKBONE|DICT|INTERRES
   128   64  142 1    
   129   65   66 2    
   130   65   67 1    
   131   67   68 1    
   132   67   69 1    
   133   67  143 1    
   134   68  144 1    
   135   68  145 1    
   136   68  146 1    
   137   69   70 am   BACKBONE|DICT|INTERRES
   138   69  147 1    
   139   70   71 2    
   140   70   72 1    
   141   72   73 1    
   142   72   74 1    
   143   72  148 1    
   144   73  149 1    
   145   73  150 1    
   146   73  151 1    
   147   74   75 am   BACKBONE|DICT|INTERRES
   148   74  152 1    
   149   75   76 2    
   150   75   77 1    
   151   77   78 1    
   152   77   79 1    
   153   77  153 1    
   154   78  154 1    
   155   78  155 1    
   156   78  156 1    
   157   79   80 am   BACKBONE|DICT|INTERRES
   158   79  157 1    
   159   80   81 2    
@<TRIPOS>SUBSTRUCTURE
     1 UNK         1 GROUP             0       ****    0 ROOT    
