@<TRIPOS>MOLECULE
3R207
157   159    1
SMALL
USER_CHARGES


@<TRIPOS>ATOM
      1 CA        -46.4116  -26.6654   10.9058 C.3       0 UNK        -0.1975 
      2 C         -46.7927  -27.1092    9.5018 C.2       0 UNK         0.4852 
      3 O         -47.5132  -26.3897    8.8097 O.2       0 UNK        -0.5216 
      4 N         -46.2919  -28.2765    9.0756 N.am      1 UNK        -0.4461 
      5 CA        -46.5361  -28.9591    7.7926 C.3       1 UNK         0.0864 
      6 C6        -48.0263  -29.3198    7.5501 C.3       14 UNK        -0.0898 
      7 S7        -48.5906  -30.5934    8.7245 S.3       14 UNK        -0.2598 
      8 C8        -50.2951  -30.8706    8.1539 C.3       14 UNK         0.0286 
      9 C9        -51.2590  -29.8834    8.7916 C.ar      14 UNK        -0.0844 
     10 C10       -51.7318  -28.7773    8.0768 C.ar      14 UNK        -0.0881 
     11 C11       -52.6291  -27.8837    8.6709 C.ar      14 UNK        -0.0643 
     12 C12       -53.0349  -28.0966    9.9917 C.ar      14 UNK        -0.0930 
     13 C13       -52.5714  -29.1986   10.7140 C.ar      14 UNK        -0.0827 
     14 C14       -51.6894  -30.0927   10.1049 C.ar      14 UNK        -0.1249 
     15 C15       -53.0046  -29.4097   12.1576 C.3       14 UNK         0.0141 
     16 S16       -54.4029  -30.5713   12.3183 S.3       14 UNK        -0.2313 
     17 C17       -55.7810  -29.6772   11.5128 C.3       14 UNK        -0.0915 
     18 CA        -56.6884  -28.8647   12.4792 C.3       13 UNK         0.0968 
     19 C         -57.6799  -29.7158   13.3224 C.2       13 UNK         0.5732 
     20 N         -58.1288  -29.2332   14.4761 N.am      13 UNK        -0.7310 
     21 O         -58.0690  -30.8124   12.9276 O.2       13 UNK        -0.5035 
     22 N         -55.9282  -27.9145   13.3007 N.am      13 UNK        -0.4233 
     23 C         -55.5796  -26.6725   12.9522 C.2       13 UNK         0.4989 
     24 O         -55.8272  -26.1781   11.8510 O.2       13 UNK        -0.4996 
     25 CA        -54.8097  -25.8514   14.0097 C.3       12 UNK         0.0216 
     26 CB        -55.0296  -24.3322   13.8546 C.3       12 UNK        -0.1964 
     27 N         -55.0467  -26.2709   15.4012 N.am      12 UNK        -0.4276 
     28 C         -56.2195  -26.2988   16.0589 C.2       12 UNK         0.5020 
     29 O         -57.2950  -25.9969   15.5406 O.2       12 UNK        -0.5489 
     30 CA        -56.2262  -26.7918   17.5210 C.3       11 UNK         0.0294 
     31 CB        -57.0828  -28.0621   17.6637 C.3       11 UNK        -0.2019 
     32 N         -54.8922  -27.0707   18.0542 N.am      11 UNK        -0.4493 
     33 C         -54.0383  -26.1500   18.5202 C.2       11 UNK         0.4932 
     34 O         -54.3063  -24.9529   18.6198 O.2       11 UNK        -0.5029 
     35 CA        -52.6352  -26.6491   18.9155 C.3       10 UNK         0.0280 
     36 CB        -52.5650  -26.9054   20.4297 C.3       10 UNK        -0.1976 
     37 N         -52.2003  -27.8558   18.1966 N.am      10 UNK        -0.4242 
     38 C         -52.0329  -27.9359   16.8697 C.2       10 UNK         0.5072 
     39 O         -52.2820  -27.0146   16.0870 O.2       10 UNK        -0.5224 
     40 CA        -51.5589  -29.2789   16.3093 C.3       9 UNK         0.0343 
     41 CB        -52.7556  -30.1284   15.8491 C.3       9 UNK        -0.2003 
     42 N         -50.6994  -28.9800   15.1717 N.am      9 UNK        -0.4272 
     43 C         -49.5247  -29.5612   14.9030 C.2       9 UNK         0.4988 
     44 O         -49.1027  -30.5580   15.4904 O.2       9 UNK        -0.5108 
     45 CA        -48.6550  -28.9113   13.8089 C.3       8 UNK         0.0248 
     46 CB        -48.7236  -29.7173   12.5022 C.3       8 UNK        -0.2001 
     47 N         -49.0104  -27.5169   13.5280 N.am      8 UNK        -0.4140 
     48 C         -48.8204  -26.4810   14.3587 C.2       8 UNK         0.5028 
     49 O         -48.2862  -26.5934   15.4628 O.2       8 UNK        -0.5428 
     50 CA        -49.2914  -25.0896   13.8832 C.3       7 UNK         0.0264 
     51 CB        -48.2999  -23.9848   14.2921 C.3       7 UNK        -0.1988 
     52 N         -49.5060  -25.0046   12.4351 N.am      7 UNK        -0.4454 
     53 C         -50.5951  -25.4176   11.7728 C.2       7 UNK         0.5027 
     54 O         -51.5468  -25.9608   12.3332 O.2       7 UNK        -0.5083 
     55 CA        -50.5892  -25.2835   10.2318 C.3       6 UNK         0.0844 
     56 C56       -51.9686  -24.8625    9.6549 C.3       14 UNK        -0.0967 
     57 S57       -52.0697  -25.2661    7.8765 S.3       14 UNK        -0.2604 
     58 C58       -53.1874  -26.7047    7.8834 C.3       14 UNK         0.0134 
     59 N         -49.4875  -24.4719    9.6929 N.am      6 UNK        -0.4116 
     60 C         -49.3033  -23.1536    9.8633 C.2       5 UNK         0.5034 
     61 O         -49.9614  -22.4555   10.6347 O.2       5 UNK        -0.5045 
     62 CA        -48.2129  -22.4985    9.0032 C.3       5 UNK         0.0224 
     63 CB        -46.8085  -22.8204    9.5384 C.3       5 UNK        -0.1978 
     64 N         -48.3133  -22.8873    7.5940 N.am      5 UNK        -0.4737 
     65 C         -49.3293  -22.5405    6.7854 C.2       4 UNK         0.5027 
     66 O         -50.2697  -21.8304    7.1456 O.2       4 UNK        -0.5211 
     67 CA        -49.2800  -23.0587    5.3311 C.3       4 UNK         0.0297 
     68 CB        -50.1754  -22.2472    4.3706 C.3       4 UNK        -0.1993 
     69 N         -47.9135  -23.1662    4.8072 N.am      4 UNK        -0.4486 
     70 C         -46.9985  -22.1888    4.7062 C.2       3 UNK         0.4961 
     71 O         -47.2428  -20.9977    4.9043 O.2       3 UNK        -0.5105 
     72 CA        -45.5589  -22.6147    4.3406 C.3       3 UNK         0.0299 
     73 CB        -44.5060  -21.7592    5.0773 C.3       3 UNK        -0.1972 
     74 N         -45.2661  -24.0460    4.5304 N.am      3 UNK        -0.4305 
     75 C         -45.3575  -24.7550    5.6661 C.2       2 UNK         0.5006 
     76 O         -45.7727  -24.3056    6.7372 O.2       2 UNK        -0.5106 
     77 CA        -44.9180  -26.2177    5.5778 C.3       2 UNK         0.0296 
     78 CB        -43.3918  -26.3434    5.7348 C.3       2 UNK        -0.2002 
     79 N         -45.5865  -26.9832    6.6256 N.am      2 UNK        -0.4032 
     80 C         -45.8992  -28.2813    6.5573 C.2       1 UNK         0.5000 
     81 O         -45.6637  -28.9740    5.5647 O.2       1 UNK        -0.5238 
     82 H82       -47.3063  -26.4463   11.4829 H         1 UNK         0.0889 
     83 H83       -45.8007  -25.7644   10.8641 H         1 UNK         0.0889 
     84 H84       -45.8496  -27.4325   11.4382 H         1 UNK         0.0889 
     85 H85       -45.6808  -28.7867    9.6981 H         1 UNK         0.3028 
     86 H86       -45.9918  -29.9013    7.8797 H         1 UNK         0.0864 
     87 H87       -48.1698  -29.7192    6.5441 H         1 UNK         0.0720 
     88 H88       -48.6688  -28.4414    7.6259 H         1 UNK         0.0720 
     89 H89       -50.5923  -31.8860    8.4204 H         1 UNK         0.0814 
     90 H90       -50.3421  -30.8183    7.0651 H         1 UNK         0.0814 
     91 H91       -51.4088  -28.6135    7.0578 H         1 UNK         0.1469 
     92 H92       -53.7229  -27.4066   10.4600 H         1 UNK         0.1381 
     93 H93       -51.3284  -30.9498   10.6570 H         1 UNK         0.1206 
     94 H94       -53.2530  -28.4562   12.6230 H         1 UNK         0.0813 
     95 H95       -52.1654  -29.8063   12.7298 H         1 UNK         0.0813 
     96 H96       -56.3728  -30.4066   10.9577 H         1 UNK         0.0638 
     97 H97       -55.3894  -29.0104   10.7488 H         1 UNK         0.0638 
     98 H98       -57.3577  -28.2801   11.8455 H         1 UNK         0.0568 
     99 H99       -57.9064  -28.2921   14.7635 H         1 UNK         0.3450 
    100 H100      -58.7792  -29.7846   15.0130 H         1 UNK         0.3450 
    101 H101      -55.6870  -28.2445   14.2228 H         1 UNK         0.2987 
    102 H102      -53.7537  -26.0473   13.8206 H         1 UNK         0.0766 
    103 H103      -54.7123  -23.9887   12.8692 H         1 UNK         0.0798 
    104 H104      -54.4528  -23.7721   14.5906 H         1 UNK         0.0798 
    105 H105      -56.0795  -24.0622   13.9728 H         1 UNK         0.0798 
    106 H106      -54.2049  -26.5418   15.9026 H         1 UNK         0.3198 
    107 H107      -56.6861  -26.0033   18.1211 H         1 UNK         0.0843 
    108 H108      -56.6807  -28.8915   17.0806 H         1 UNK         0.0831 
    109 H109      -58.1047  -27.8877   17.3236 H         1 UNK         0.0831 
    110 H110      -57.1451  -28.3829   18.7037 H         1 UNK         0.0831 
    111 H111      -54.5847  -28.0319   18.0299 H         1 UNK         0.3133 
    112 H112      -51.9293  -25.8521   18.6723 H         1 UNK         0.0566 
    113 H113      -51.5533  -27.1635   20.7434 H         1 UNK         0.0814 
    114 H114      -53.2296  -27.7148   20.7346 H         1 UNK         0.0814 
    115 H115      -52.8573  -26.0160   20.9901 H         1 UNK         0.0814 
    116 H116      -51.9857  -28.6649   18.7628 H         1 UNK         0.3091 
    117 H117      -50.9989  -29.8129   17.0802 H         1 UNK         0.0702 
    118 H118      -52.4256  -31.0506   15.3703 H         1 UNK         0.0785 
    119 H119      -53.3840  -29.5907   15.1384 H         1 UNK         0.0785 
    120 H120      -53.3849  -30.4090   16.6944 H         1 UNK         0.0785 
    121 H121      -50.9420  -28.1251   14.6868 H         1 UNK         0.2998 
    122 H122      -47.6230  -28.9285   14.1654 H         1 UNK         0.0697 
    123 H123      -49.7244  -29.7018   12.0736 H         1 UNK         0.0825 
    124 H124      -48.4570  -30.7617   12.6697 H         1 UNK         0.0825 
    125 H125      -48.0346  -29.3262   11.7535 H         1 UNK         0.0825 
    126 H126      -49.4944  -27.3386   12.6607 H         1 UNK         0.3029 
    127 H127      -50.2415  -24.8938   14.3862 H         1 UNK         0.0897 
    128 H128      -47.3127  -24.1480   13.8580 H         1 UNK         0.0792 
    129 H129      -48.1777  -23.9456   15.3755 H         1 UNK         0.0792 
    130 H130      -48.6488  -23.0015   13.9753 H         1 UNK         0.0792 
    131 H131      -48.7699  -24.5724   11.8970 H         1 UNK         0.3086 
    132 H132      -50.3857  -26.2986    9.8858 H         1 UNK         0.0583 
    133 H133      -52.7962  -25.3397   10.1789 H         1 UNK         0.1020 
    134 H134      -52.1348  -23.7920    9.7820 H         1 UNK         0.1020 
    135 H135      -54.1563  -26.4034    8.2851 H         1 UNK         0.0694 
    136 H136      -53.3707  -27.0100    6.8522 H         1 UNK         0.0694 
    137 H137      -48.8458  -24.9748    9.0850 H         1 UNK         0.2989 
    138 H138      -48.3566  -21.4171    9.0618 H         1 UNK         0.1055 
    139 H139      -46.5720  -23.8799    9.4445 H         1 UNK         0.0806 
    140 H140      -46.7169  -22.5527   10.5919 H         1 UNK         0.0806 
    141 H141      -46.0444  -22.2646    8.9944 H         1 UNK         0.0806 
    142 H142      -47.5515  -23.4474    7.2214 H         1 UNK         0.3061 
    143 H143      -49.6743  -24.0756    5.3664 H         1 UNK         0.0734 
    144 H144      -49.8839  -21.1971    4.3353 H         1 UNK         0.0832 
    145 H145      -50.1314  -22.6428    3.3561 H         1 UNK         0.0832 
    146 H146      -51.2190  -22.2835    4.6859 H         1 UNK         0.0832 
    147 H147      -47.5963  -24.1055    4.6148 H         1 UNK         0.3156 
    148 H148      -45.4527  -22.4225    3.2720 H         1 UNK         0.0589 
    149 H149      -43.4927  -22.0501    4.8003 H         1 UNK         0.0808 
    150 H150      -44.6141  -20.7019    4.8323 H         1 UNK         0.0808 
    151 H151      -44.5977  -21.8526    6.1602 H         1 UNK         0.0808 
    152 H152      -44.9317  -24.5248    3.7045 H         1 UNK         0.3098 
    153 H153      -45.2167  -26.6036    4.6006 H         1 UNK         0.0720 
    154 H154      -42.8674  -25.7726    4.9673 H         1 UNK         0.0791 
    155 H155      -43.0674  -27.3802    5.6433 H         1 UNK         0.0791 
    156 H156      -43.0568  -25.9726    6.7045 H         1 UNK         0.0791 
    157 H157      -45.9113  -26.4412    7.4209 H         1 UNK         0.3028 
@<TRIPOS>BOND
     1    1    2 1    
     2    1   82 1    
     3    1   83 1    
     4    1   84 1    
     5    2    3 2    
     6    2    4 am   BACKBONE|DICT|INTERRES
     7    4    5 1    
     8    4   85 1    
     9    5    6 1    
    10    5   80 1    
    11    5   86 1    
    12    6    7 1    
    13    6   87 1    
    14    6   88 1    
    15    7    8 1    
    16    8    9 1    
    17    8   89 1    
    18    8   90 1    
    19    9   10 ar   
    20    9   14 ar   
    21   10   11 ar   
    22   10   91 1    
    23   11   12 ar   
    24   11   58 1    
    25   12   13 ar   
    26   12   92 1    
    27   13   14 ar   
    28   13   15 1    
    29   14   93 1    
    30   15   16 1    
    31   15   94 1    
    32   15   95 1    
    33   16   17 1    
    34   17   18 1    
    35   17   96 1    
    36   17   97 1    
    37   18   19 1    
    38   18   22 1    
    39   18   98 1    
    40   19   20 am   BACKBONE|DICT|INTERRES
    41   19   21 2    
    42   20   99 1    
    43   20  100 1    
    44   22   23 am   BACKBONE|DICT|INTERRES
    45   22  101 1    
    46   23   24 2    
    47   23   25 1    
    48   25   26 1    
    49   25   27 1    
    50   25  102 1    
    51   26  103 1    
    52   26  104 1    
    53   26  105 1    
    54   27   28 am   BACKBONE|DICT|INTERRES
    55   27  106 1    
    56   28   29 2    
    57   28   30 1    
    58   30   31 1    
    59   30   32 1    
    60   30  107 1    
    61   31  108 1    
    62   31  109 1    
    63   31  110 1    
    64   32   33 am   BACKBONE|DICT|INTERRES
    65   32  111 1    
    66   33   34 2    
    67   33   35 1    
    68   35   36 1    
    69   35   37 1    
    70   35  112 1    
    71   36  113 1    
    72   36  114 1    
    73   36  115 1    
    74   37   38 am   BACKBONE|DICT|INTERRES
    75   37  116 1    
    76   38   39 2    
    77   38   40 1    
    78   40   41 1    
    79   40   42 1    
    80   40  117 1    
    81   41  118 1    
    82   41  119 1    
    83   41  120 1    
    84   42   43 am   BACKBONE|DICT|INTERRES
    85   42  121 1    
    86   43   44 2    
    87   43   45 1    
    88   45   46 1    
    89   45   47 1    
    90   45  122 1    
    91   46  123 1    
    92   46  124 1    
    93   46  125 1    
    94   47   48 am   BACKBONE|DICT|INTERRES
    95   47  126 1    
    96   48   49 2    
    97   48   50 1    
    98   50   51 1    
    99   50   52 1    
   100   50  127 1    
   101   51  128 1    
   102   51  129 1    
   103   51  130 1    
   104   52   53 am   BACKBONE|DICT|INTERRES
   105   52  131 1    
   106   53   54 2    
   107   53   55 1    
   108   55   56 1    
   109   55   59 1    
   110   55  132 1    
   111   56   57 1    
   112   56  133 1    
   113   56  134 1    
   114   57   58 1    
   115   58  135 1    
   116   58  136 1    
   117   59   60 am   BACKBONE|DICT|INTERRES
   118   59  137 1    
   119   60   61 2    
   120   60   62 1    
   121   62   63 1    
   122   62   64 1    
   123   62  138 1    
   124   63  139 1    
   125   63  140 1    
   126   63  141 1    
   127   64   65 am   BACKBONE|DICT|INTERRES
   128   64  142 1    
   129   65   66 2    
   130   65   67 1    
   131   67   68 1    
   132   67   69 1    
   133   67  143 1    
   134   68  144 1    
   135   68  145 1    
   136   68  146 1    
   137   69   70 am   BACKBONE|DICT|INTERRES
   138   69  147 1    
   139   70   71 2    
   140   70   72 1    
   141   72   73 1    
   142   72   74 1    
   143   72  148 1    
   144   73  149 1    
   145   73  150 1    
   146   73  151 1    
   147   74   75 am   BACKBONE|DICT|INTERRES
   148   74  152 1    
   149   75   76 2    
   150   75   77 1    
   151   77   78 1    
   152   77   79 1    
   153   77  153 1    
   154   78  154 1    
   155   78  155 1    
   156   78  156 1    
   157   79   80 am   BACKBONE|DICT|INTERRES
   158   79  157 1    
   159   80   81 2    
@<TRIPOS>SUBSTRUCTURE
     1 UNK         1 GROUP             0       ****    0 ROOT    
