@<TRIPOS>MOLECULE
3R207
157   159    1
SMALL
USER_CHARGES


@<TRIPOS>ATOM
      1 CA        -47.6253  -32.5827    2.9002 C.3       0 UNK        -0.1975 
      2 C         -47.9934  -31.3796    3.7564 C.2       0 UNK         0.4852 
      3 O         -48.5198  -30.3958    3.2336 O.2       0 UNK        -0.5216 
      4 N         -47.7289  -31.4549    5.0674 N.am      1 UNK        -0.4461 
      5 CA        -47.9481  -30.3686    6.0277 C.3       1 UNK         0.0864 
      6 C6        -48.0987  -30.9239    7.4687 C.3       14 UNK        -0.0898 
      7 S7        -49.0692  -29.8125    8.5391 S.3       14 UNK        -0.2598 
      8 C8        -50.7593  -30.3473    8.1457 C.3       14 UNK         0.0286 
      9 C9        -51.7707  -29.2962    8.5702 C.ar      14 UNK        -0.0844 
     10 C10       -52.0681  -28.2263    7.7211 C.ar      14 UNK        -0.0881 
     11 C11       -53.0190  -27.2697    8.0896 C.ar      14 UNK        -0.0643 
     12 C12       -53.6788  -27.3945    9.3168 C.ar      14 UNK        -0.0930 
     13 C13       -53.3709  -28.4474   10.1835 C.ar      14 UNK        -0.0827 
     14 C14       -52.4174  -29.3965    9.8038 C.ar      14 UNK        -0.1249 
     15 C15       -54.0692  -28.5749   11.5267 C.3       14 UNK         0.0141 
     16 S16       -53.2423  -27.5769   12.8031 S.3       14 UNK        -0.2313 
     17 C17       -54.1628  -26.0061   12.7228 C.3       14 UNK        -0.0915 
     18 CA        -54.9831  -25.7211   14.0075 C.3       13 UNK         0.0968 
     19 C         -55.6999  -24.3499   13.9107 C.2       13 UNK         0.5732 
     20 N         -54.9899  -23.2736   14.2207 N.am      13 UNK        -0.7310 
     21 O         -56.8628  -24.2524   13.5222 O.2       13 UNK        -0.5035 
     22 N         -55.8485  -26.8545   14.3611 N.am      13 UNK        -0.4233 
     23 C         -56.5631  -26.9801   15.4863 C.2       13 UNK         0.4989 
     24 O         -56.6961  -26.0962   16.3334 O.2       13 UNK        -0.4996 
     25 CA        -57.1825  -28.3690   15.7383 C.3       12 UNK         0.0216 
     26 CB        -58.5236  -28.5099   14.9994 C.3       12 UNK        -0.1964 
     27 N         -56.2902  -29.4767   15.3626 N.am      12 UNK        -0.4276 
     28 C         -55.0883  -29.7097   15.9131 C.2       12 UNK         0.5020 
     29 O         -54.6258  -29.0430   16.8401 O.2       12 UNK        -0.5489 
     30 CA        -54.2262  -30.8376   15.3238 C.3       11 UNK         0.0294 
     31 CB        -54.8735  -31.6192   14.1611 C.3       11 UNK        -0.2019 
     32 N         -52.9771  -30.2190   14.8930 N.am      11 UNK        -0.4493 
     33 C         -51.7517  -30.7505   14.9682 C.2       11 UNK         0.4932 
     34 O         -51.5263  -31.9215   15.2748 O.2       11 UNK        -0.5029 
     35 CA        -50.5716  -29.7972   14.6813 C.3       10 UNK         0.0280 
     36 CB        -50.1370  -29.8927   13.2100 C.3       10 UNK        -0.1976 
     37 N         -50.8883  -28.4004   15.0045 N.am      10 UNK        -0.4242 
     38 C         -51.0572  -27.9329   16.2491 C.2       10 UNK         0.5072 
     39 O         -50.7575  -28.5610   17.2660 O.2       10 UNK        -0.5224 
     40 CA        -51.6638  -26.5300   16.3578 C.3       9 UNK         0.0343 
     41 CB        -52.1514  -26.1811   17.7774 C.3       9 UNK        -0.2003 
     42 N         -50.6989  -25.5370   15.9003 N.am      9 UNK        -0.4272 
     43 C         -51.0014  -24.3862   15.2859 C.2       9 UNK         0.4988 
     44 O         -52.1533  -24.0368   15.0144 O.2       9 UNK        -0.5108 
     45 CA        -49.8292  -23.4450   14.9543 C.3       8 UNK         0.0248 
     46 CB        -48.4350  -24.0787   15.1477 C.3       8 UNK        -0.2001 
     47 N         -49.9474  -22.9807   13.5745 N.am      8 UNK        -0.4140 
     48 C         -50.3356  -21.7571   13.1923 C.2       8 UNK         0.5028 
     49 O         -50.6331  -20.8569   13.9800 O.2       8 UNK        -0.5428 
     50 CA        -50.3787  -21.4559   11.6799 C.3       7 UNK         0.0264 
     51 CB        -49.2366  -20.5018   11.2919 C.3       7 UNK        -0.1988 
     52 N         -50.3059  -22.6482   10.8312 N.am      7 UNK        -0.4454 
     53 C         -51.3063  -23.5230   10.6576 C.2       7 UNK         0.5027 
     54 O         -52.4258  -23.3667   11.1439 O.2       7 UNK        -0.5083 
     55 CA        -50.9955  -24.7957    9.8342 C.3       6 UNK         0.0844 
     56 C56       -51.2429  -24.5826    8.3188 C.3       14 UNK        -0.0967 
     57 S57       -53.0184  -24.4816    7.9023 S.3       14 UNK        -0.2604 
     58 C58       -53.3393  -26.1119    7.1523 C.3       14 UNK         0.0134 
     59 N         -49.6432  -25.3061   10.0828 N.am      6 UNK        -0.4116 
     60 C         -49.1816  -25.7361   11.2667 C.2       5 UNK         0.5034 
     61 O         -49.8581  -25.7991   12.2927 O.2       5 UNK        -0.5045 
     62 CA        -47.6881  -26.0891   11.3340 C.3       5 UNK         0.0224 
     63 CB        -47.4171  -27.4918   10.7718 C.3       5 UNK        -0.1978 
     64 N         -46.8680  -25.1051   10.6246 N.am      5 UNK        -0.4737 
     65 C         -46.6072  -23.8724   11.0818 C.2       4 UNK         0.5027 
     66 O         -46.9720  -23.4596   12.1804 O.2       4 UNK        -0.5211 
     67 CA        -45.8278  -22.9318   10.1470 C.3       4 UNK         0.0297 
     68 CB        -44.3150  -23.0892   10.3664 C.3       4 UNK        -0.1993 
     69 N         -46.1406  -23.1392    8.7306 N.am      4 UNK        -0.4486 
     70 C         -47.3365  -22.9028    8.1722 C.2       3 UNK         0.4961 
     71 O         -48.3054  -22.4599    8.7859 O.2       3 UNK        -0.5105 
     72 CA        -47.4919  -23.2821    6.6905 C.3       3 UNK         0.0299 
     73 CB        -46.9771  -22.1534    5.7836 C.3       3 UNK        -0.1972 
     74 N         -46.8162  -24.5399    6.3544 N.am      3 UNK        -0.4305 
     75 C         -47.1474  -25.7303    6.8707 C.2       2 UNK         0.5006 
     76 O         -48.0646  -25.8986    7.6798 O.2       2 UNK        -0.5106 
     77 CA        -46.2796  -26.9217    6.4609 C.3       2 UNK         0.0296 
     78 CB        -45.0835  -27.0740    7.4210 C.3       2 UNK        -0.2002 
     79 N         -47.1186  -28.1135    6.4902 N.am      2 UNK        -0.4032 
     80 C         -46.8455  -29.2901    5.9180 C.2       1 UNK         0.5000 
     81 O         -45.7857  -29.5369    5.3334 O.2       1 UNK        -0.5238 
     82 H82       -46.9067  -32.2916    2.1345 H         1 UNK         0.0889 
     83 H83       -48.5123  -32.9759    2.4040 H         1 UNK         0.0889 
     84 H84       -47.1842  -33.3849    3.4915 H         1 UNK         0.0889 
     85 H85       -47.2600  -32.2724    5.4305 H         1 UNK         0.3028 
     86 H86       -48.8882  -29.8877    5.7475 H         1 UNK         0.0864 
     87 H87       -48.6033  -31.8917    7.4563 H         1 UNK         0.0720 
     88 H88       -47.1253  -31.1046    7.9290 H         1 UNK         0.0720 
     89 H89       -50.9616  -31.2988    8.6401 H         1 UNK         0.0814 
     90 H90       -50.8543  -30.5316    7.0747 H         1 UNK         0.0814 
     91 H91       -51.5590  -28.1424    6.7707 H         1 UNK         0.1469 
     92 H92       -54.4169  -26.6581    9.6016 H         1 UNK         0.1381 
     93 H93       -52.1804  -30.2172   10.4669 H         1 UNK         0.1206 
     94 H94       -54.0519  -29.6175   11.8426 H         1 UNK         0.0813 
     95 H95       -55.1218  -28.3022   11.4405 H         1 UNK         0.0813 
     96 H96       -54.8057  -25.9897   11.8420 H         1 UNK         0.0638 
     97 H97       -53.4243  -25.2184   12.5769 H         1 UNK         0.0638 
     98 H98       -54.2854  -25.6309   14.8372 H         1 UNK         0.0568 
     99 H99       -55.4111  -22.3613   14.1540 H         1 UNK         0.3450 
    100 H100      -54.0195  -23.3707   14.5037 H         1 UNK         0.3450 
    101 H101      -55.8192  -27.6355   13.7264 H         1 UNK         0.2987 
    102 H102      -57.3748  -28.4514   16.8103 H         1 UNK         0.0766 
    103 H103      -59.0164  -29.4505   15.2465 H         1 UNK         0.0798 
    104 H104      -58.3984  -28.4695   13.9166 H         1 UNK         0.0798 
    105 H105      -59.2071  -27.7063   15.2777 H         1 UNK         0.0798 
    106 H106      -56.6026  -30.0826   14.6175 H         1 UNK         0.3198 
    107 H107      -54.0200  -31.5340   16.1396 H         1 UNK         0.0843 
    108 H108      -55.1479  -30.9751   13.3269 H         1 UNK         0.0831 
    109 H109      -55.7727  -32.1408   14.4915 H         1 UNK         0.0831 
    110 H110      -54.1925  -32.3790   13.7770 H         1 UNK         0.0831 
    111 H111      -53.0461  -29.2379   14.6586 H         1 UNK         0.3133 
    112 H112      -49.7323  -30.1117   15.3050 H         1 UNK         0.0566 
    113 H113      -49.2520  -29.2857   13.0229 H         1 UNK         0.0814 
    114 H114      -49.8878  -30.9200   12.9409 H         1 UNK         0.0814 
    115 H115      -50.9212  -29.5587   12.5303 H         1 UNK         0.0814 
    116 H116      -51.1161  -27.7953   14.2251 H         1 UNK         0.3091 
    117 H117      -52.5281  -26.5298   15.6968 H         1 UNK         0.0702 
    118 H118      -52.8606  -26.9280   18.1378 H         1 UNK         0.0785 
    119 H119      -51.3262  -26.1386   18.4891 H         1 UNK         0.0785 
    120 H120      -52.6611  -25.2177   17.7949 H         1 UNK         0.0785 
    121 H121      -49.7264  -25.7587   16.0636 H         1 UNK         0.2998 
    122 H122      -49.9055  -22.6017   15.6432 H         1 UNK         0.0697 
    123 H123      -48.2978  -24.9633   14.5246 H         1 UNK         0.0825 
    124 H124      -48.2614  -24.3620   16.1865 H         1 UNK         0.0825 
    125 H125      -47.6488  -23.3712   14.8826 H         1 UNK         0.0825 
    126 H126      -49.7802  -23.6804   12.8624 H         1 UNK         0.3029 
    127 H127      -51.3265  -20.9518   11.4792 H         1 UNK         0.0897 
    128 H128      -48.2600  -20.9546   11.4669 H         1 UNK         0.0792 
    129 H129      -49.2789  -19.5805   11.8745 H         1 UNK         0.0792 
    130 H130      -49.2926  -20.2218   10.2397 H         1 UNK         0.0792 
    131 H131      -49.4426  -22.7839   10.3111 H         1 UNK         0.3086 
    132 H132      -51.6753  -25.5743   10.1861 H         1 UNK         0.0583 
    133 H133      -50.7427  -23.6791    7.9648 H         1 UNK         0.1020 
    134 H134      -50.8017  -25.4017    7.7484 H         1 UNK         0.1020 
    135 H135      -54.3914  -26.1673    6.8696 H         1 UNK         0.0694 
    136 H136      -52.7685  -26.1898    6.2257 H         1 UNK         0.0694 
    137 H137      -49.0186  -25.3377    9.2824 H         1 UNK         0.2989 
    138 H138      -47.3980  -26.0870   12.3872 H         1 UNK         0.1055 
    139 H139      -48.0500  -28.2375   11.2531 H         1 UNK         0.0806 
    140 H140      -46.3819  -27.7914   10.9343 H         1 UNK         0.0806 
    141 H141      -47.6157  -27.5431    9.7023 H         1 UNK         0.0806 
    142 H142      -46.5615  -25.3487    9.6946 H         1 UNK         0.3061 
    143 H143      -46.1059  -21.9074   10.4041 H         1 UNK         0.0734 
    144 H144      -43.7499  -22.3707    9.7723 H         1 UNK         0.0832 
    145 H145      -44.0543  -22.9174   11.4119 H         1 UNK         0.0832 
    146 H146      -43.9685  -24.0900   10.1054 H         1 UNK         0.0832 
    147 H147      -45.4011  -23.4992    8.1453 H         1 UNK         0.3156 
    148 H148      -48.5581  -23.4149    6.4944 H         1 UNK         0.0589 
    149 H149      -45.9065  -21.9864    5.9083 H         1 UNK         0.0808 
    150 H150      -47.1630  -22.3732    4.7321 H         1 UNK         0.0808 
    151 H151      -47.4817  -21.2127    6.0094 H         1 UNK         0.0808 
    152 H152      -46.0499  -24.4857    5.6980 H         1 UNK         0.3098 
    153 H153      -45.9204  -26.7665    5.4414 H         1 UNK         0.0720 
    154 H154      -44.4310  -27.8928    7.1179 H         1 UNK         0.0791 
    155 H155      -45.4085  -27.2713    8.4429 H         1 UNK         0.0791 
    156 H156      -44.4734  -26.1701    7.4386 H         1 UNK         0.0791 
    157 H157      -47.9976  -27.9851    6.9795 H         1 UNK         0.3028 
@<TRIPOS>BOND
     1    1    2 1    
     2    1   82 1    
     3    1   83 1    
     4    1   84 1    
     5    2    3 2    
     6    2    4 am   BACKBONE|DICT|INTERRES
     7    4    5 1    
     8    4   85 1    
     9    5    6 1    
    10    5   80 1    
    11    5   86 1    
    12    6    7 1    
    13    6   87 1    
    14    6   88 1    
    15    7    8 1    
    16    8    9 1    
    17    8   89 1    
    18    8   90 1    
    19    9   10 ar   
    20    9   14 ar   
    21   10   11 ar   
    22   10   91 1    
    23   11   12 ar   
    24   11   58 1    
    25   12   13 ar   
    26   12   92 1    
    27   13   14 ar   
    28   13   15 1    
    29   14   93 1    
    30   15   16 1    
    31   15   94 1    
    32   15   95 1    
    33   16   17 1    
    34   17   18 1    
    35   17   96 1    
    36   17   97 1    
    37   18   19 1    
    38   18   22 1    
    39   18   98 1    
    40   19   20 am   BACKBONE|DICT|INTERRES
    41   19   21 2    
    42   20   99 1    
    43   20  100 1    
    44   22   23 am   BACKBONE|DICT|INTERRES
    45   22  101 1    
    46   23   24 2    
    47   23   25 1    
    48   25   26 1    
    49   25   27 1    
    50   25  102 1    
    51   26  103 1    
    52   26  104 1    
    53   26  105 1    
    54   27   28 am   BACKBONE|DICT|INTERRES
    55   27  106 1    
    56   28   29 2    
    57   28   30 1    
    58   30   31 1    
    59   30   32 1    
    60   30  107 1    
    61   31  108 1    
    62   31  109 1    
    63   31  110 1    
    64   32   33 am   BACKBONE|DICT|INTERRES
    65   32  111 1    
    66   33   34 2    
    67   33   35 1    
    68   35   36 1    
    69   35   37 1    
    70   35  112 1    
    71   36  113 1    
    72   36  114 1    
    73   36  115 1    
    74   37   38 am   BACKBONE|DICT|INTERRES
    75   37  116 1    
    76   38   39 2    
    77   38   40 1    
    78   40   41 1    
    79   40   42 1    
    80   40  117 1    
    81   41  118 1    
    82   41  119 1    
    83   41  120 1    
    84   42   43 am   BACKBONE|DICT|INTERRES
    85   42  121 1    
    86   43   44 2    
    87   43   45 1    
    88   45   46 1    
    89   45   47 1    
    90   45  122 1    
    91   46  123 1    
    92   46  124 1    
    93   46  125 1    
    94   47   48 am   BACKBONE|DICT|INTERRES
    95   47  126 1    
    96   48   49 2    
    97   48   50 1    
    98   50   51 1    
    99   50   52 1    
   100   50  127 1    
   101   51  128 1    
   102   51  129 1    
   103   51  130 1    
   104   52   53 am   BACKBONE|DICT|INTERRES
   105   52  131 1    
   106   53   54 2    
   107   53   55 1    
   108   55   56 1    
   109   55   59 1    
   110   55  132 1    
   111   56   57 1    
   112   56  133 1    
   113   56  134 1    
   114   57   58 1    
   115   58  135 1    
   116   58  136 1    
   117   59   60 am   BACKBONE|DICT|INTERRES
   118   59  137 1    
   119   60   61 2    
   120   60   62 1    
   121   62   63 1    
   122   62   64 1    
   123   62  138 1    
   124   63  139 1    
   125   63  140 1    
   126   63  141 1    
   127   64   65 am   BACKBONE|DICT|INTERRES
   128   64  142 1    
   129   65   66 2    
   130   65   67 1    
   131   67   68 1    
   132   67   69 1    
   133   67  143 1    
   134   68  144 1    
   135   68  145 1    
   136   68  146 1    
   137   69   70 am   BACKBONE|DICT|INTERRES
   138   69  147 1    
   139   70   71 2    
   140   70   72 1    
   141   72   73 1    
   142   72   74 1    
   143   72  148 1    
   144   73  149 1    
   145   73  150 1    
   146   73  151 1    
   147   74   75 am   BACKBONE|DICT|INTERRES
   148   74  152 1    
   149   75   76 2    
   150   75   77 1    
   151   77   78 1    
   152   77   79 1    
   153   77  153 1    
   154   78  154 1    
   155   78  155 1    
   156   78  156 1    
   157   79   80 am   BACKBONE|DICT|INTERRES
   158   79  157 1    
   159   80   81 2    
@<TRIPOS>SUBSTRUCTURE
     1 UNK         1 GROUP             0       ****    0 ROOT    
