@<TRIPOS>MOLECULE
3R207
157   159    1
SMALL
USER_CHARGES


@<TRIPOS>ATOM
      1 CA        -46.6172  -30.1160    8.5912 C.3       0 UNK        -0.1975 
      2 C         -47.3950  -29.1147    7.7522 C.2       0 UNK         0.4852 
      3 O         -47.8763  -28.1214    8.2913 O.2       0 UNK        -0.5216 
      4 N         -47.5281  -29.3756    6.4443 N.am      1 UNK        -0.4461 
      5 CA        -48.2007  -28.5251    5.4483 C.3       1 UNK         0.0864 
      6 C6        -49.6925  -28.2054    5.7612 C.3       14 UNK        -0.0898 
      7 S7        -50.6902  -29.6839    6.1515 S.3       14 UNK        -0.2598 
      8 C8        -51.2302  -29.3140    7.8525 C.3       14 UNK         0.0286 
      9 C9        -52.4804  -28.4461    7.8679 C.ar      14 UNK        -0.0844 
     10 C10       -52.3860  -27.0499    7.8712 C.ar      14 UNK        -0.0881 
     11 C11       -53.5423  -26.2627    7.8831 C.ar      14 UNK        -0.0643 
     12 C12       -54.7952  -26.8815    7.8833 C.ar      14 UNK        -0.0930 
     13 C13       -54.9043  -28.2754    7.9028 C.ar      14 UNK        -0.0827 
     14 C14       -53.7411  -29.0500    7.8895 C.ar      14 UNK        -0.1249 
     15 C15       -56.2687  -28.9594    7.9370 C.3       14 UNK         0.0141 
     16 S16       -57.4486  -28.1992    9.1067 S.3       14 UNK        -0.2313 
     17 C17       -56.5327  -28.2719   10.6832 C.3       14 UNK        -0.0915 
     18 CA        -57.1000  -29.3146   11.6815 C.3       13 UNK         0.0968 
     19 C         -56.5812  -30.7514   11.3736 C.2       13 UNK         0.5732 
     20 N         -55.6478  -31.2963   12.1456 N.am      13 UNK        -0.7310 
     21 O         -57.0445  -31.3889   10.4315 O.2       13 UNK        -0.5035 
     22 N         -56.8746  -28.8616   13.0609 N.am      13 UNK        -0.4233 
     23 C         -57.4376  -29.3731   14.1597 C.2       13 UNK         0.4989 
     24 O         -58.2646  -30.2866   14.1431 O.2       13 UNK        -0.4996 
     25 CA        -56.9795  -28.7606   15.4998 C.3       12 UNK         0.0216 
     26 CB        -57.6350  -29.4397   16.7176 C.3       12 UNK        -0.1964 
     27 N         -55.5209  -28.7979   15.6628 N.am      12 UNK        -0.4276 
     28 C         -54.6484  -27.9745   15.0675 C.2       12 UNK         0.5020 
     29 O         -54.9744  -27.0978   14.2627 O.2       12 UNK        -0.5489 
     30 CA        -53.1614  -28.2126   15.3711 C.3       11 UNK         0.0294 
     31 CB        -52.4908  -28.9549   14.2032 C.3       11 UNK        -0.2019 
     32 N         -52.4461  -26.9611   15.6220 N.am      11 UNK        -0.4493 
     33 C         -52.6590  -26.1535   16.6723 C.2       11 UNK         0.4932 
     34 O         -53.5019  -26.3748   17.5444 O.2       11 UNK        -0.5029 
     35 CA        -51.7483  -24.9124   16.7789 C.3       10 UNK         0.0280 
     36 CB        -51.8029  -24.2327   18.1635 C.3       10 UNK        -0.1976 
     37 N         -50.3639  -25.2040   16.3911 N.am      10 UNK        -0.4242 
     38 C         -49.5305  -26.1040   16.9389 C.2       10 UNK         0.5072 
     39 O         -49.7816  -26.7455   17.9600 O.2       10 UNK        -0.5224 
     40 CA        -48.1971  -26.3590   16.2140 C.3       9 UNK         0.0343 
     41 CB        -48.1515  -27.7933   15.6565 C.3       9 UNK        -0.2003 
     42 N         -47.9806  -25.4179   15.1108 N.am      9 UNK        -0.4272 
     43 C         -47.1000  -24.4090   15.1347 C.2       9 UNK         0.4988 
     44 O         -46.3435  -24.1752   16.0781 O.2       9 UNK        -0.5108 
     45 CA        -47.0512  -23.5012   13.8964 C.3       8 UNK         0.0248 
     46 CB        -46.1681  -24.1268   12.8048 C.3       8 UNK        -0.2001 
     47 N         -48.3701  -23.1891   13.3393 N.am      8 UNK        -0.4140 
     48 C         -49.2892  -22.4150   13.9351 C.2       8 UNK         0.5028 
     49 O         -49.1674  -21.9604   15.0723 O.2       8 UNK        -0.5428 
     50 CA        -50.5546  -22.0844   13.1321 C.3       7 UNK         0.0264 
     51 CB        -50.2563  -21.0053   12.0777 C.3       7 UNK        -0.1988 
     52 N         -51.0834  -23.2719   12.4645 N.am      7 UNK        -0.4454 
     53 C         -52.2434  -23.8728   12.7653 C.2       7 UNK         0.5027 
     54 O         -53.0193  -23.4662   13.6308 O.2       7 UNK        -0.5083 
     55 CA        -52.6056  -25.1541   11.9775 C.3       6 UNK         0.0844 
     56 C56       -53.5238  -24.8224   10.7712 C.3       14 UNK        -0.0967 
     57 S57       -52.6098  -24.0767    9.3660 S.3       14 UNK        -0.2604 
     58 C58       -53.4548  -24.7422    7.8946 C.3       14 UNK         0.0134 
     59 N         -51.4405  -25.9404   11.5598 N.am      6 UNK        -0.4116 
     60 C         -50.4621  -26.4012   12.3467 C.2       5 UNK         0.5034 
     61 O         -50.4586  -26.3012   13.5737 O.2       5 UNK        -0.5045 
     62 CA        -49.2483  -27.0263   11.6418 C.3       5 UNK         0.0224 
     63 CB        -49.4378  -28.5451   11.5124 C.3       5 UNK        -0.1978 
     64 N         -48.9336  -26.4603   10.3224 N.am      5 UNK        -0.4737 
     65 C         -48.7325  -25.1662   10.0348 C.2       4 UNK         0.5027 
     66 O         -48.9024  -24.2455   10.8368 O.2       4 UNK        -0.5211 
     67 CA        -48.2646  -24.8569    8.6020 C.3       4 UNK         0.0297 
     68 CB        -48.8578  -23.5298    8.0973 C.3       4 UNK        -0.1993 
     69 N         -46.8098  -24.8212    8.3928 N.am      4 UNK        -0.4486 
     70 C         -45.8224  -25.4928    9.0085 C.2       3 UNK         0.4961 
     71 O         -45.9421  -26.1893   10.0159 O.2       3 UNK        -0.5105 
     72 CA        -44.4550  -25.4124    8.3099 C.3       3 UNK         0.0299 
     73 CB        -43.3281  -26.0851    9.1170 C.3       3 UNK        -0.1972 
     74 N         -44.5584  -26.0623    7.0028 N.am      3 UNK        -0.4305 
     75 C         -44.8782  -25.4426    5.8597 C.2       2 UNK         0.5006 
     76 O         -45.0344  -24.2250    5.7604 O.2       2 UNK        -0.5106 
     77 CA        -45.1157  -26.3453    4.6389 C.3       2 UNK         0.0296 
     78 CB        -43.7930  -26.9296    4.1143 C.3       2 UNK        -0.2002 
     79 N         -46.0622  -27.4286    4.9272 N.am      2 UNK        -0.4032 
     80 C         -47.3749  -27.2520    5.1506 C.2       1 UNK         0.5000 
     81 O         -47.9244  -26.1483    5.1227 O.2       1 UNK        -0.5238 
     82 H82       -46.1586  -30.8934    7.9807 H         1 UNK         0.0889 
     83 H83       -47.2807  -30.5936    9.3114 H         1 UNK         0.0889 
     84 H84       -45.8277  -29.6053    9.1424 H         1 UNK         0.0889 
     85 H85       -47.1354  -30.2319    6.0783 H         1 UNK         0.3028 
     86 H86       -48.1921  -29.0989    4.5202 H         1 UNK         0.0864 
     87 H87       -49.7614  -27.4897    6.5797 H         1 UNK         0.0720 
     88 H88       -50.1578  -27.7159    4.9039 H         1 UNK         0.0720 
     89 H89       -50.4266  -28.8346    8.4111 H         1 UNK         0.0814 
     90 H90       -51.4287  -30.2555    8.3668 H         1 UNK         0.0814 
     91 H91       -51.4175  -26.5706    7.8668 H         1 UNK         0.1469 
     92 H92       -55.6912  -26.2762    7.8869 H         1 UNK         0.1381 
     93 H93       -53.8148  -30.1291    7.8939 H         1 UNK         0.1206 
     94 H94       -56.6997  -28.9290    6.9357 H         1 UNK         0.0813 
     95 H95       -56.1618  -30.0143    8.1935 H         1 UNK         0.0813 
     96 H96       -56.6075  -27.2688   11.1068 H         1 UNK         0.0638 
     97 H97       -55.4661  -28.4302   10.5162 H         1 UNK         0.0638 
     98 H98       -58.1839  -29.3497   11.5557 H         1 UNK         0.0568 
     99 H99       -55.2727  -30.7906   12.9300 H         1 UNK         0.3450 
    100 H100      -55.3267  -32.2296   11.9435 H         1 UNK         0.3450 
    101 H101      -56.1910  -28.1211   13.1945 H         1 UNK         0.2987 
    102 H102      -57.2987  -27.7160   15.4948 H         1 UNK         0.0766 
    103 H103      -57.3406  -28.9550   17.6487 H         1 UNK         0.0798 
    104 H104      -57.3652  -30.4943   16.7872 H         1 UNK         0.0798 
    105 H105      -58.7229  -29.3844   16.6583 H         1 UNK         0.0798 
    106 H106      -55.1630  -29.5143   16.2788 H         1 UNK         0.3198 
    107 H107      -53.0726  -28.8274   16.2694 H         1 UNK         0.0843 
    108 H108      -52.9505  -29.9310   14.0442 H         1 UNK         0.0831 
    109 H109      -51.4312  -29.1242   14.3955 H         1 UNK         0.0831 
    110 H110      -52.5782  -28.3990   13.2688 H         1 UNK         0.0831 
    111 H111      -51.7398  -26.6957   14.9408 H         1 UNK         0.3133 
    112 H112      -52.1239  -24.1953   16.0490 H         1 UNK         0.0566 
    113 H113      -51.1589  -23.3540   18.1987 H         1 UNK         0.0814 
    114 H114      -52.8156  -23.9007   18.3952 H         1 UNK         0.0814 
    115 H115      -51.4930  -24.9089   18.9607 H         1 UNK         0.0814 
    116 H116      -50.0489  -24.7475   15.5481 H         1 UNK         0.3091 
    117 H117      -47.4052  -26.2636   16.9596 H         1 UNK         0.0702 
    118 H118      -47.2083  -27.9908   15.1469 H         1 UNK         0.0785 
    119 H119      -48.9603  -27.9836   14.9510 H         1 UNK         0.0785 
    120 H120      -48.2443  -28.5263   16.4590 H         1 UNK         0.0785 
    121 H121      -48.5768  -25.5365   14.3015 H         1 UNK         0.2998 
    122 H122      -46.5918  -22.5578   14.1992 H         1 UNK         0.0697 
    123 H123      -46.5722  -25.0763   12.4525 H         1 UNK         0.0825 
    124 H124      -45.1615  -24.3202   13.1775 H         1 UNK         0.0825 
    125 H125      -46.0733  -23.4674   11.9417 H         1 UNK         0.0825 
    126 H126      -48.5487  -23.5239   12.3923 H         1 UNK         0.3029 
    127 H127      -51.2891  -21.6780   13.8310 H         1 UNK         0.0897 
    128 H128      -51.1630  -20.7122   11.5481 H         1 UNK         0.0792 
    129 H129      -49.8466  -20.1070   12.5416 H         1 UNK         0.0792 
    130 H130      -49.5348  -21.3504   11.3355 H         1 UNK         0.0792 
    131 H131      -50.4956  -23.6821   11.7430 H         1 UNK         0.3086 
    132 H132      -53.1730  -25.7847   12.6646 H         1 UNK         0.0583 
    133 H133      -54.3359  -24.1539   11.0643 H         1 UNK         0.1020 
    134 H134      -54.0143  -25.7401   10.4468 H         1 UNK         0.1020 
    135 H135      -54.4484  -24.2951    7.8360 H         1 UNK         0.0694 
    136 H136      -52.9188  -24.4121    7.0038 H         1 UNK         0.0694 
    137 H137      -51.3267  -26.0439   10.5624 H         1 UNK         0.2989 
    138 H138      -48.3782  -26.8460   12.2755 H         1 UNK         0.1055 
    139 H139      -49.6059  -29.0032   12.4881 H         1 UNK         0.0806 
    140 H140      -48.5553  -29.0188   11.0820 H         1 UNK         0.0806 
    141 H141      -50.2934  -28.7935   10.8837 H         1 UNK         0.0806 
    142 H142      -48.6531  -27.1282    9.6031 H         1 UNK         0.3061 
    143 H143      -48.6523  -25.6440    7.9539 H         1 UNK         0.0734 
    144 H144      -49.9406  -23.5117    8.2196 H         1 UNK         0.0832 
    145 H145      -48.4547  -22.6756    8.6428 H         1 UNK         0.0832 
    146 H146      -48.6533  -23.3805    7.0369 H         1 UNK         0.0832 
    147 H147      -46.5255  -24.3132    7.5653 H         1 UNK         0.3156 
    148 H148      -44.1975  -24.3576    8.1922 H         1 UNK         0.0589 
    149 H149      -43.5183  -27.1476    9.2743 H         1 UNK         0.0808 
    150 H150      -42.3672  -25.9879    8.6116 H         1 UNK         0.0808 
    151 H151      -43.2253  -25.6232   10.1000 H         1 UNK         0.0808 
    152 H152      -44.4971  -27.0698    7.0002 H         1 UNK         0.3098 
    153 H153      -45.5445  -25.7250    3.8485 H         1 UNK         0.0720 
    154 H154      -43.9470  -27.4904    3.1921 H         1 UNK         0.0791 
    155 H155      -43.3234  -27.5973    4.8375 H         1 UNK         0.0791 
    156 H156      -43.0783  -26.1359    3.8918 H         1 UNK         0.0791 
    157 H157      -45.6889  -28.3659    4.9644 H         1 UNK         0.3028 
@<TRIPOS>BOND
     1    1    2 1    
     2    1   82 1    
     3    1   83 1    
     4    1   84 1    
     5    2    3 2    
     6    2    4 am   BACKBONE|DICT|INTERRES
     7    4    5 1    
     8    4   85 1    
     9    5    6 1    
    10    5   80 1    
    11    5   86 1    
    12    6    7 1    
    13    6   87 1    
    14    6   88 1    
    15    7    8 1    
    16    8    9 1    
    17    8   89 1    
    18    8   90 1    
    19    9   10 ar   
    20    9   14 ar   
    21   10   11 ar   
    22   10   91 1    
    23   11   12 ar   
    24   11   58 1    
    25   12   13 ar   
    26   12   92 1    
    27   13   14 ar   
    28   13   15 1    
    29   14   93 1    
    30   15   16 1    
    31   15   94 1    
    32   15   95 1    
    33   16   17 1    
    34   17   18 1    
    35   17   96 1    
    36   17   97 1    
    37   18   19 1    
    38   18   22 1    
    39   18   98 1    
    40   19   20 am   BACKBONE|DICT|INTERRES
    41   19   21 2    
    42   20   99 1    
    43   20  100 1    
    44   22   23 am   BACKBONE|DICT|INTERRES
    45   22  101 1    
    46   23   24 2    
    47   23   25 1    
    48   25   26 1    
    49   25   27 1    
    50   25  102 1    
    51   26  103 1    
    52   26  104 1    
    53   26  105 1    
    54   27   28 am   BACKBONE|DICT|INTERRES
    55   27  106 1    
    56   28   29 2    
    57   28   30 1    
    58   30   31 1    
    59   30   32 1    
    60   30  107 1    
    61   31  108 1    
    62   31  109 1    
    63   31  110 1    
    64   32   33 am   BACKBONE|DICT|INTERRES
    65   32  111 1    
    66   33   34 2    
    67   33   35 1    
    68   35   36 1    
    69   35   37 1    
    70   35  112 1    
    71   36  113 1    
    72   36  114 1    
    73   36  115 1    
    74   37   38 am   BACKBONE|DICT|INTERRES
    75   37  116 1    
    76   38   39 2    
    77   38   40 1    
    78   40   41 1    
    79   40   42 1    
    80   40  117 1    
    81   41  118 1    
    82   41  119 1    
    83   41  120 1    
    84   42   43 am   BACKBONE|DICT|INTERRES
    85   42  121 1    
    86   43   44 2    
    87   43   45 1    
    88   45   46 1    
    89   45   47 1    
    90   45  122 1    
    91   46  123 1    
    92   46  124 1    
    93   46  125 1    
    94   47   48 am   BACKBONE|DICT|INTERRES
    95   47  126 1    
    96   48   49 2    
    97   48   50 1    
    98   50   51 1    
    99   50   52 1    
   100   50  127 1    
   101   51  128 1    
   102   51  129 1    
   103   51  130 1    
   104   52   53 am   BACKBONE|DICT|INTERRES
   105   52  131 1    
   106   53   54 2    
   107   53   55 1    
   108   55   56 1    
   109   55   59 1    
   110   55  132 1    
   111   56   57 1    
   112   56  133 1    
   113   56  134 1    
   114   57   58 1    
   115   58  135 1    
   116   58  136 1    
   117   59   60 am   BACKBONE|DICT|INTERRES
   118   59  137 1    
   119   60   61 2    
   120   60   62 1    
   121   62   63 1    
   122   62   64 1    
   123   62  138 1    
   124   63  139 1    
   125   63  140 1    
   126   63  141 1    
   127   64   65 am   BACKBONE|DICT|INTERRES
   128   64  142 1    
   129   65   66 2    
   130   65   67 1    
   131   67   68 1    
   132   67   69 1    
   133   67  143 1    
   134   68  144 1    
   135   68  145 1    
   136   68  146 1    
   137   69   70 am   BACKBONE|DICT|INTERRES
   138   69  147 1    
   139   70   71 2    
   140   70   72 1    
   141   72   73 1    
   142   72   74 1    
   143   72  148 1    
   144   73  149 1    
   145   73  150 1    
   146   73  151 1    
   147   74   75 am   BACKBONE|DICT|INTERRES
   148   74  152 1    
   149   75   76 2    
   150   75   77 1    
   151   77   78 1    
   152   77   79 1    
   153   77  153 1    
   154   78  154 1    
   155   78  155 1    
   156   78  156 1    
   157   79   80 am   BACKBONE|DICT|INTERRES
   158   79  157 1    
   159   80   81 2    
@<TRIPOS>SUBSTRUCTURE
     1 UNK         1 GROUP             0       ****    0 ROOT    
