@<TRIPOS>MOLECULE
3R207
157   159    1
SMALL
USER_CHARGES


@<TRIPOS>ATOM
      1 CA        -48.6767  -27.9545    1.2998 C.3       0 UNK        -0.1975 
      2 C         -49.1534  -29.0460    2.2555 C.2       0 UNK         0.4852 
      3 O         -49.5775  -30.1038    1.7933 O.2       0 UNK        -0.5216 
      4 N         -49.1167  -28.8492    3.5823 N.am      1 UNK        -0.4461 
      5 CA        -48.6066  -27.6743    4.3040 C.3       1 UNK         0.0864 
      6 C6        -48.9531  -27.7416    5.8110 C.3       14 UNK        -0.0898 
      7 S7        -50.7428  -27.6308    6.1272 S.3       14 UNK        -0.2598 
      8 C8        -50.7287  -26.8298    7.7602 C.3       14 UNK         0.0286 
      9 C9        -52.1289  -26.4306    8.1930 C.ar      14 UNK        -0.0844 
     10 C10       -52.6415  -25.1833    7.8286 C.ar      14 UNK        -0.0881 
     11 C11       -53.9110  -24.7794    8.2564 C.ar      14 UNK        -0.0643 
     12 C12       -54.6775  -25.6540    9.0345 C.ar      14 UNK        -0.0930 
     13 C13       -54.1869  -26.9179    9.3824 C.ar      14 UNK        -0.0827 
     14 C14       -52.9082  -27.2978    8.9632 C.ar      14 UNK        -0.1249 
     15 C15       -55.0553  -27.8796   10.1830 C.3       14 UNK         0.0141 
     16 S16       -54.8177  -27.6831   11.9762 S.3       14 UNK        -0.2313 
     17 C17       -53.3598  -28.7363   12.2939 C.3       14 UNK        -0.0915 
     18 CA        -53.6589  -29.9206   13.2528 C.3       13 UNK         0.0968 
     19 C         -52.4278  -30.8619   13.4090 C.2       13 UNK         0.5732 
     20 N         -51.9923  -31.2159   14.6137 N.am      13 UNK        -0.7310 
     21 O         -51.8607  -31.2990   12.4105 O.2       13 UNK        -0.5035 
     22 N         -54.2079  -29.4662   14.5409 N.am      13 UNK        -0.4233 
     23 C         -55.1548  -30.1186   15.2273 C.2       13 UNK         0.4989 
     24 O         -55.7154  -31.1358   14.8138 O.2       13 UNK        -0.4996 
     25 CA        -55.5463  -29.5425   16.6042 C.3       12 UNK         0.0216 
     26 CB        -56.2808  -30.5688   17.4936 C.3       12 UNK        -0.1964 
     27 N         -54.4310  -28.9373   17.3431 N.am      12 UNK        -0.4276 
     28 C         -53.2773  -29.5210   17.7091 C.2       12 UNK         0.5020 
     29 O         -52.9837  -30.6820   17.4191 O.2       12 UNK        -0.5489 
     30 CA        -52.2707  -28.6639   18.5040 C.3       11 UNK         0.0294 
     31 CB        -50.8175  -28.9783   18.1022 C.3       11 UNK        -0.2019 
     32 N         -52.5153  -27.2375   18.2905 N.am      11 UNK        -0.4493 
     33 C         -53.0207  -26.3782   19.1864 C.2       11 UNK         0.4932 
     34 O         -53.2558  -26.6711   20.3585 O.2       11 UNK        -0.5029 
     35 CA        -53.3511  -24.9552   18.6878 C.3       10 UNK         0.0280 
     36 CB        -52.2342  -23.9777   19.0852 C.3       10 UNK        -0.1976 
     37 N         -53.5698  -24.8766   17.2384 N.am      10 UNK        -0.4242 
     38 C         -54.5689  -25.4923   16.5836 C.2       10 UNK         0.5072 
     39 O         -55.4733  -26.1056   17.1508 O.2       10 UNK        -0.5224 
     40 CA        -54.5072  -25.5181   15.0440 C.3       9 UNK         0.0343 
     41 CB        -55.3949  -24.4168   14.4476 C.3       9 UNK        -0.2003 
     42 N         -53.1440  -25.4012   14.5137 N.am      9 UNK        -0.4272 
     43 C         -52.1481  -26.2615   14.7842 C.2       9 UNK         0.4988 
     44 O         -52.3337  -27.3221   15.3811 O.2       9 UNK        -0.5108 
     45 CA        -50.7054  -25.8794   14.3955 C.3       8 UNK         0.0248 
     46 CB        -50.1654  -26.8128   13.3000 C.3       8 UNK        -0.2001 
     47 N         -50.5377  -24.4860   13.9748 N.am      8 UNK        -0.4140 
     48 C         -50.7683  -23.4066   14.7412 C.2       8 UNK         0.5028 
     49 O         -51.0781  -23.4733   15.9317 O.2       8 UNK        -0.5428 
     50 CA        -50.7300  -22.0275   14.0501 C.3       7 UNK         0.0264 
     51 CB        -49.3616  -21.3606   14.2601 C.3       7 UNK        -0.1988 
     52 N         -51.0264  -22.0811   12.6131 N.am      7 UNK        -0.4454 
     53 C         -52.1485  -22.5828   12.0725 C.2       7 UNK         0.5027 
     54 O         -53.1223  -22.9221   12.7442 O.2       7 UNK        -0.5083 
     55 CA        -52.1762  -22.8184   10.5461 C.3       6 UNK         0.0844 
     56 C56       -53.1864  -21.8605    9.8653 C.3       14 UNK        -0.0967 
     57 S57       -53.2728  -22.0503    8.0511 S.3       14 UNK        -0.2604 
     58 C58       -54.4714  -23.4154    7.8603 C.3       14 UNK         0.0134 
     59 N         -50.8548  -22.8159    9.8965 N.am      6 UNK        -0.4116 
     60 C         -49.8545  -23.6651   10.1688 C.2       5 UNK         0.5034 
     61 O         -49.8792  -24.4795   11.0958 O.2       5 UNK        -0.5045 
     62 CA        -48.6038  -23.5630    9.2878 C.3       5 UNK         0.0224 
     63 CB        -47.8226  -22.2674    9.5727 C.3       5 UNK        -0.1978 
     64 N         -47.7492  -24.7140    9.5678 N.am      5 UNK        -0.4737 
     65 C         -46.9920  -25.3639    8.6814 C.2       4 UNK         0.5027 
     66 O         -46.8992  -25.0445    7.4947 O.2       4 UNK        -0.5211 
     67 CA        -46.2536  -26.6021    9.2218 C.3       4 UNK         0.0297 
     68 CB        -47.2274  -27.7776    9.4141 C.3       4 UNK        -0.1993 
     69 N         -45.1616  -27.0332    8.3478 N.am      4 UNK        -0.4486 
     70 C         -43.9970  -26.3978    8.1786 C.2       3 UNK         0.4961 
     71 O         -43.6807  -25.3802    8.7965 O.2       3 UNK        -0.5105 
     72 CA        -42.9991  -26.9957    7.1641 C.3       3 UNK         0.0299 
     73 CB        -42.1753  -28.1289    7.8072 C.3       3 UNK        -0.1972 
     74 N         -43.5761  -27.4175    5.8757 N.am      3 UNK        -0.4305 
     75 C         -44.4604  -28.3938    5.6293 C.2       2 UNK         0.5006 
     76 O         -44.9594  -29.1149    6.4970 O.2       2 UNK        -0.5106 
     77 CA        -44.8775  -28.5972    4.1644 C.3       2 UNK         0.0296 
     78 CB        -44.3319  -29.9264    3.6177 C.3       2 UNK        -0.2002 
     79 N         -46.3366  -28.5957    4.0755 N.am      2 UNK        -0.4032 
     80 C         -47.0845  -27.4859    4.1456 C.2       1 UNK         0.5000 
     81 O         -46.6198  -26.3464    4.0931 O.2       1 UNK        -0.5238 
     82 H82       -49.0265  -26.9683    1.6014 H         1 UNK         0.0889 
     83 H83       -49.0580  -28.1395    0.2956 H         1 UNK         0.0889 
     84 H84       -47.5887  -27.9419    1.2439 H         1 UNK         0.0889 
     85 H85       -49.4825  -29.5801    4.1760 H         1 UNK         0.3028 
     86 H86       -49.0864  -26.7846    3.8918 H         1 UNK         0.0864 
     87 H87       -48.4646  -26.9231    6.3428 H         1 UNK         0.0720 
     88 H88       -48.5764  -28.6640    6.2573 H         1 UNK         0.0720 
     89 H89       -50.2850  -27.5055    8.4930 H         1 UNK         0.0814 
     90 H90       -50.0904  -25.9455    7.7316 H         1 UNK         0.0814 
     91 H91       -52.0448  -24.5196    7.2183 H         1 UNK         0.1469 
     92 H92       -55.6651  -25.3577    9.3607 H         1 UNK         0.1381 
     93 H93       -52.5200  -28.2714    9.2275 H         1 UNK         0.1206 
     94 H94       -56.1066  -27.6996    9.9532 H         1 UNK         0.0813 
     95 H95       -54.8598  -28.9119    9.8887 H         1 UNK         0.0813 
     96 H96       -52.9778  -29.1104   11.3440 H         1 UNK         0.0638 
     97 H97       -52.5720  -28.1089   12.7007 H         1 UNK         0.0638 
     98 H98       -54.4131  -30.5307   12.7529 H         1 UNK         0.0568 
     99 H99       -52.4579  -30.9058   15.4594 H         1 UNK         0.3450 
    100 H100      -51.1984  -31.8315   14.6818 H         1 UNK         0.3450 
    101 H101      -53.7359  -28.6722   14.9609 H         1 UNK         0.2987 
    102 H102      -56.2448  -28.7307   16.3960 H         1 UNK         0.0766 
    103 H103      -56.5757  -30.1289   18.4462 H         1 UNK         0.0798 
    104 H104      -57.1904  -30.9289   17.0111 H         1 UNK         0.0798 
    105 H105      -55.6573  -31.4385   17.7042 H         1 UNK         0.0798 
    106 H106      -54.5720  -27.9655   17.5965 H         1 UNK         0.3198 
    107 H107      -52.3982  -28.9194   19.5578 H         1 UNK         0.0843 
    108 H108      -50.5676  -30.0190   18.3126 H         1 UNK         0.0831 
    109 H109      -50.1105  -28.3599   18.6551 H         1 UNK         0.0831 
    110 H110      -50.6493  -28.8114   17.0374 H         1 UNK         0.0831 
    111 H111      -52.3846  -26.9281   17.3325 H         1 UNK         0.3133 
    112 H112      -54.2731  -24.6401   19.1807 H         1 UNK         0.0566 
    113 H113      -51.2831  -24.2423   18.6209 H         1 UNK         0.0814 
    114 H114      -52.0810  -23.9767   20.1653 H         1 UNK         0.0814 
    115 H115      -52.4762  -22.9560   18.7916 H         1 UNK         0.0814 
    116 H116      -52.8537  -24.3979   16.7007 H         1 UNK         0.3091 
    117 H117      -54.9035  -26.4830   14.7235 H         1 UNK         0.0702 
    118 H118      -56.4216  -24.5049   14.8053 H         1 UNK         0.0785 
    119 H119      -55.4247  -24.4814   13.3595 H         1 UNK         0.0785 
    120 H120      -55.0377  -23.4216   14.7153 H         1 UNK         0.0785 
    121 H121      -52.9422  -24.5603   13.9830 H         1 UNK         0.2998 
    122 H122      -50.0952  -26.0231   15.2894 H         1 UNK         0.0697 
    123 H123      -50.7149  -26.6971   12.3650 H         1 UNK         0.0825 
    124 H124      -50.2422  -27.8588   13.6008 H         1 UNK         0.0825 
    125 H125      -49.1139  -26.6138   13.0932 H         1 UNK         0.0825 
    126 H126      -50.2997  -24.3470   12.9962 H         1 UNK         0.3029 
    127 H127      -51.4948  -21.4074   14.5225 H         1 UNK         0.0897 
    128 H128      -49.3461  -20.3482   13.8559 H         1 UNK         0.0792 
    129 H129      -49.1234  -21.2865   15.3223 H         1 UNK         0.0792 
    130 H130      -48.5589  -21.9262   13.7849 H         1 UNK         0.0792 
    131 H131      -50.2774  -21.8227   11.9880 H         1 UNK         0.3086 
    132 H132      -52.5599  -23.8333   10.4314 H         1 UNK         0.0583 
    133 H133      -54.1865  -22.0017   10.2808 H         1 UNK         0.1020 
    134 H134      -52.9207  -20.8223   10.0740 H         1 UNK         0.1020 
    135 H135      -55.3702  -23.1810    8.4328 H         1 UNK         0.0694 
    136 H136      -54.7772  -23.4628    6.8145 H         1 UNK         0.0694 
    137 H137      -50.7539  -22.1698    9.1269 H         1 UNK         0.2989 
    138 H138      -48.9231  -23.5821    8.2431 H         1 UNK         0.1055 
    139 H139      -46.9241  -22.2069    8.9580 H         1 UNK         0.0806 
    140 H140      -47.5150  -22.2030   10.6173 H         1 UNK         0.0806 
    141 H141      -48.4214  -21.3832    9.3510 H         1 UNK         0.0806 
    142 H142      -47.8586  -25.0867   10.5033 H         1 UNK         0.3061 
    143 H143      -45.8259  -26.3425   10.1927 H         1 UNK         0.0734 
    144 H144      -48.0510  -27.5089   10.0772 H         1 UNK         0.0832 
    145 H145      -47.6615  -28.1004    8.4684 H         1 UNK         0.0832 
    146 H146      -46.7257  -28.6369    9.8595 H         1 UNK         0.0832 
    147 H147      -45.3174  -27.8609    7.7768 H         1 UNK         0.3156 
    148 H148      -42.3012  -26.1947    6.9147 H         1 UNK         0.0589 
    149 H149      -42.7982  -28.9765    8.0943 H         1 UNK         0.0808 
    150 H150      -41.4049  -28.4940    7.1280 H         1 UNK         0.0808 
    151 H151      -41.6718  -27.7789    8.7094 H         1 UNK         0.0808 
    152 H152      -43.2736  -26.8643    5.0851 H         1 UNK         0.3098 
    153 H153      -44.4802  -27.7845    3.5521 H         1 UNK         0.0720 
    154 H154      -44.6200  -30.0750    2.5767 H         1 UNK         0.0791 
    155 H155      -43.2420  -29.9457    3.6583 H         1 UNK         0.0791 
    156 H156      -44.6942  -30.7807    4.1914 H         1 UNK         0.0791 
    157 H157      -46.7965  -29.4918    4.1491 H         1 UNK         0.3028 
@<TRIPOS>BOND
     1    1    2 1    
     2    1   82 1    
     3    1   83 1    
     4    1   84 1    
     5    2    3 2    
     6    2    4 am   BACKBONE|DICT|INTERRES
     7    4    5 1    
     8    4   85 1    
     9    5    6 1    
    10    5   80 1    
    11    5   86 1    
    12    6    7 1    
    13    6   87 1    
    14    6   88 1    
    15    7    8 1    
    16    8    9 1    
    17    8   89 1    
    18    8   90 1    
    19    9   10 ar   
    20    9   14 ar   
    21   10   11 ar   
    22   10   91 1    
    23   11   12 ar   
    24   11   58 1    
    25   12   13 ar   
    26   12   92 1    
    27   13   14 ar   
    28   13   15 1    
    29   14   93 1    
    30   15   16 1    
    31   15   94 1    
    32   15   95 1    
    33   16   17 1    
    34   17   18 1    
    35   17   96 1    
    36   17   97 1    
    37   18   19 1    
    38   18   22 1    
    39   18   98 1    
    40   19   20 am   BACKBONE|DICT|INTERRES
    41   19   21 2    
    42   20   99 1    
    43   20  100 1    
    44   22   23 am   BACKBONE|DICT|INTERRES
    45   22  101 1    
    46   23   24 2    
    47   23   25 1    
    48   25   26 1    
    49   25   27 1    
    50   25  102 1    
    51   26  103 1    
    52   26  104 1    
    53   26  105 1    
    54   27   28 am   BACKBONE|DICT|INTERRES
    55   27  106 1    
    56   28   29 2    
    57   28   30 1    
    58   30   31 1    
    59   30   32 1    
    60   30  107 1    
    61   31  108 1    
    62   31  109 1    
    63   31  110 1    
    64   32   33 am   BACKBONE|DICT|INTERRES
    65   32  111 1    
    66   33   34 2    
    67   33   35 1    
    68   35   36 1    
    69   35   37 1    
    70   35  112 1    
    71   36  113 1    
    72   36  114 1    
    73   36  115 1    
    74   37   38 am   BACKBONE|DICT|INTERRES
    75   37  116 1    
    76   38   39 2    
    77   38   40 1    
    78   40   41 1    
    79   40   42 1    
    80   40  117 1    
    81   41  118 1    
    82   41  119 1    
    83   41  120 1    
    84   42   43 am   BACKBONE|DICT|INTERRES
    85   42  121 1    
    86   43   44 2    
    87   43   45 1    
    88   45   46 1    
    89   45   47 1    
    90   45  122 1    
    91   46  123 1    
    92   46  124 1    
    93   46  125 1    
    94   47   48 am   BACKBONE|DICT|INTERRES
    95   47  126 1    
    96   48   49 2    
    97   48   50 1    
    98   50   51 1    
    99   50   52 1    
   100   50  127 1    
   101   51  128 1    
   102   51  129 1    
   103   51  130 1    
   104   52   53 am   BACKBONE|DICT|INTERRES
   105   52  131 1    
   106   53   54 2    
   107   53   55 1    
   108   55   56 1    
   109   55   59 1    
   110   55  132 1    
   111   56   57 1    
   112   56  133 1    
   113   56  134 1    
   114   57   58 1    
   115   58  135 1    
   116   58  136 1    
   117   59   60 am   BACKBONE|DICT|INTERRES
   118   59  137 1    
   119   60   61 2    
   120   60   62 1    
   121   62   63 1    
   122   62   64 1    
   123   62  138 1    
   124   63  139 1    
   125   63  140 1    
   126   63  141 1    
   127   64   65 am   BACKBONE|DICT|INTERRES
   128   64  142 1    
   129   65   66 2    
   130   65   67 1    
   131   67   68 1    
   132   67   69 1    
   133   67  143 1    
   134   68  144 1    
   135   68  145 1    
   136   68  146 1    
   137   69   70 am   BACKBONE|DICT|INTERRES
   138   69  147 1    
   139   70   71 2    
   140   70   72 1    
   141   72   73 1    
   142   72   74 1    
   143   72  148 1    
   144   73  149 1    
   145   73  150 1    
   146   73  151 1    
   147   74   75 am   BACKBONE|DICT|INTERRES
   148   74  152 1    
   149   75   76 2    
   150   75   77 1    
   151   77   78 1    
   152   77   79 1    
   153   77  153 1    
   154   78  154 1    
   155   78  155 1    
   156   78  156 1    
   157   79   80 am   BACKBONE|DICT|INTERRES
   158   79  157 1    
   159   80   81 2    
@<TRIPOS>SUBSTRUCTURE
     1 UNK         1 GROUP             0       ****    0 ROOT    
