@<TRIPOS>MOLECULE
3R207
157   159    1
SMALL
USER_CHARGES


@<TRIPOS>ATOM
      1 CA        -49.0141  -29.7625    8.7986 C.3       0 UNK        -0.1975 
      2 C         -48.9051  -29.4815    7.3106 C.2       0 UNK         0.4852 
      3 O         -47.8401  -29.6635    6.7207 O.2       0 UNK        -0.5216 
      4 N         -50.0111  -29.0422    6.7009 N.am      1 UNK        -0.4461 
      5 CA        -50.1428  -28.8237    5.2534 C.3       1 UNK         0.0864 
      6 C6        -51.6008  -29.0445    4.7750 C.3       14 UNK        -0.0898 
      7 S7        -52.2456  -30.6903    5.2403 S.3       14 UNK        -0.2598 
      8 C8        -53.6298  -30.2720    6.3488 C.3       14 UNK         0.0286 
      9 C9        -53.1700  -29.6876    7.6789 C.ar      14 UNK        -0.0844 
     10 C10       -53.1846  -28.3037    7.8812 C.ar      14 UNK        -0.0881 
     11 C11       -52.8197  -27.7609    9.1164 C.ar      14 UNK        -0.0643 
     12 C12       -52.4522  -28.6147   10.1573 C.ar      14 UNK        -0.0930 
     13 C13       -52.4109  -29.9977    9.9651 C.ar      14 UNK        -0.0827 
     14 C14       -52.7694  -30.5302    8.7218 C.ar      14 UNK        -0.1249 
     15 C15       -51.9834  -30.9061   11.1091 C.3       14 UNK         0.0141 
     16 S16       -53.1232  -30.8002   12.5263 S.3       14 UNK        -0.2313 
     17 C17       -54.6140  -31.6108   11.8567 C.3       14 UNK        -0.0915 
     18 CA        -55.6238  -30.6253   11.2101 C.3       13 UNK         0.0968 
     19 C         -56.8415  -31.4058   10.6438 C.2       13 UNK         0.5732 
     20 N         -56.7805  -31.8233    9.3866 N.am      13 UNK        -0.7310 
     21 O         -57.8146  -31.6753   11.3465 O.2       13 UNK        -0.5035 
     22 N         -56.0011  -29.5453   12.1332 N.am      13 UNK        -0.4233 
     23 C         -56.7745  -28.4973   11.8210 C.2       13 UNK         0.4989 
     24 O         -57.2606  -28.3030   10.7057 O.2       13 UNK        -0.4996 
     25 CA        -57.0570  -27.4801   12.9413 C.3       12 UNK         0.0216 
     26 CB        -58.3540  -27.8462   13.6820 C.3       12 UNK        -0.1964 
     27 N         -55.9681  -27.3267   13.9136 N.am      12 UNK        -0.4276 
     28 C         -54.7617  -26.8173   13.6296 C.2       12 UNK         0.5020 
     29 O         -54.3987  -26.4995   12.4967 O.2       12 UNK        -0.5489 
     30 CA        -53.7950  -26.6470   14.8151 C.3       11 UNK         0.0294 
     31 CB        -52.9811  -27.9319   15.0318 C.3       11 UNK        -0.2019 
     32 N         -52.8750  -25.5200   14.6304 N.am      11 UNK        -0.4493 
     33 C         -53.2433  -24.2352   14.5282 C.2       11 UNK         0.4932 
     34 O         -54.4023  -23.8349   14.6579 O.2       11 UNK        -0.5029 
     35 CA        -52.0982  -23.2398   14.2712 C.3       10 UNK         0.0280 
     36 CB        -52.5856  -21.8161   13.9250 C.3       10 UNK        -0.1976 
     37 N         -51.1440  -23.2301   15.3856 N.am      10 UNK        -0.4242 
     38 C         -51.3727  -22.8586   16.6554 C.2       10 UNK         0.5072 
     39 O         -52.4385  -22.3814   17.0481 O.2       10 UNK        -0.5224 
     40 CA        -50.2335  -23.0608   17.6765 C.3       9 UNK         0.0343 
     41 CB        -50.7685  -23.6179   19.0093 C.3       9 UNK        -0.2003 
     42 N         -49.1642  -23.9463   17.2062 N.am      9 UNK        -0.4272 
     43 C         -48.0904  -23.5671   16.4990 C.2       9 UNK         0.4988 
     44 O         -47.9049  -22.4231   16.0866 O.2       9 UNK        -0.5108 
     45 CA        -47.0683  -24.6657   16.1877 C.3       8 UNK         0.0248 
     46 CB        -46.2039  -24.9295   17.4408 C.3       8 UNK        -0.2001 
     47 N         -47.7814  -25.8602   15.7262 N.am      8 UNK        -0.4140 
     48 C         -47.2891  -27.0743   15.4612 C.2       8 UNK         0.5028 
     49 O         -46.1068  -27.3956   15.5808 O.2       8 UNK        -0.5428 
     50 CA        -48.3005  -28.1077   14.9407 C.3       7 UNK         0.0264 
     51 CB        -49.4618  -28.3451   15.9276 C.3       7 UNK        -0.1988 
     52 N         -48.7750  -27.7826   13.5921 N.am      7 UNK        -0.4454 
     53 C         -49.5321  -26.7585   13.1753 C.2       7 UNK         0.5027 
     54 O         -50.0545  -25.9384   13.9381 O.2       7 UNK        -0.5083 
     55 CA        -49.7010  -26.6263   11.6414 C.3       6 UNK         0.0844 
     56 C56       -50.8219  -25.6232   11.2609 C.3       14 UNK        -0.0967 
     57 S57       -51.1675  -25.5633    9.4676 S.3       14 UNK        -0.2604 
     58 C58       -52.8446  -26.2554    9.3312 C.3       14 UNK         0.0134 
     59 N         -48.4259  -26.3042   10.9828 N.am      6 UNK        -0.4116 
     60 C         -47.3794  -27.1328   10.8374 C.2       5 UNK         0.5034 
     61 O         -47.3742  -28.2917   11.2553 O.2       5 UNK        -0.5045 
     62 CA        -46.1257  -26.6151   10.1136 C.3       5 UNK         0.0224 
     63 CB        -45.8597  -27.4348    8.8385 C.3       5 UNK        -0.1978 
     64 N         -46.2233  -25.2020    9.7474 N.am      5 UNK        -0.4737 
     65 C         -45.6242  -24.1938   10.3937 C.2       4 UNK         0.5027 
     66 O         -44.9444  -24.3451   11.4088 O.2       4 UNK        -0.5211 
     67 CA        -45.7828  -22.7772    9.8078 C.3       4 UNK         0.0297 
     68 CB        -44.4974  -22.3572    9.0760 C.3       4 UNK        -0.1993 
     69 N         -46.9172  -22.6391    8.8904 N.am      4 UNK        -0.4486 
     70 C         -48.2007  -22.6092    9.2709 C.2       3 UNK         0.4961 
     71 O         -48.5689  -22.6735   10.4439 O.2       3 UNK        -0.5105 
     72 CA        -49.2530  -22.5219    8.1499 C.3       3 UNK         0.0299 
     73 CB        -49.5025  -21.0539    7.7676 C.3       3 UNK        -0.1972 
     74 N         -48.9611  -23.2998    6.9347 N.am      3 UNK        -0.4305 
     75 C         -48.6348  -24.5996    6.8939 C.2       2 UNK         0.5006 
     76 O         -48.3500  -25.2759    7.8830 O.2       2 UNK        -0.5106 
     77 CA        -48.6055  -25.2737    5.5220 C.3       2 UNK         0.0296 
     78 CB        -47.1768  -25.2938    4.9492 C.3       2 UNK        -0.2002 
     79 N         -49.0970  -26.6331    5.7199 N.am      2 UNK        -0.4032 
     80 C         -49.6029  -27.4495    4.7893 C.2       1 UNK         0.5000 
     81 O         -49.6656  -27.1509    3.5947 O.2       1 UNK        -0.5238 
     82 H82       -49.5908  -30.6708    8.9698 H         1 UNK         0.0889 
     83 H83       -49.5049  -28.9371    9.3129 H         1 UNK         0.0889 
     84 H84       -48.0267  -29.9012    9.2372 H         1 UNK         0.0889 
     85 H85       -50.8647  -28.9404    7.2353 H         1 UNK         0.3028 
     86 H86       -49.5255  -29.5682    4.7456 H         1 UNK         0.0864 
     87 H87       -51.6569  -28.9736    3.6871 H         1 UNK         0.0720 
     88 H88       -52.2570  -28.2622    5.1574 H         1 UNK         0.0720 
     89 H89       -54.2092  -31.1774    6.5352 H         1 UNK         0.0814 
     90 H90       -54.3073  -29.5848    5.8393 H         1 UNK         0.0814 
     91 H91       -53.4981  -27.6465    7.0818 H         1 UNK         0.1469 
     92 H92       -52.2099  -28.2024   11.1258 H         1 UNK         0.1381 
     93 H93       -52.7525  -31.6006    8.5679 H         1 UNK         0.1206 
     94 H94       -51.9035  -31.9436   10.7811 H         1 UNK         0.0813 
     95 H95       -50.9862  -30.6116   11.4390 H         1 UNK         0.0813 
     96 H96       -55.0890  -32.1522   12.6770 H         1 UNK         0.0638 
     97 H97       -54.3047  -32.3695   11.1353 H         1 UNK         0.0638 
     98 H98       -55.1341  -30.1385   10.3661 H         1 UNK         0.0568 
     99 H99       -55.9817  -31.6159    8.8087 H         1 UNK         0.3450 
    100 H100      -57.5535  -32.3464    9.0064 H         1 UNK         0.3450 
    101 H101      -55.6410  -29.6210   13.0714 H         1 UNK         0.2987 
    102 H102      -57.2043  -26.5095   12.4624 H         1 UNK         0.0766 
    103 H103      -59.1880  -27.9396   12.9847 H         1 UNK         0.0798 
    104 H104      -58.6276  -27.0809   14.4086 H         1 UNK         0.0798 
    105 H105      -58.2644  -28.7967   14.2097 H         1 UNK         0.0798 
    106 H106      -56.1795  -27.5712   14.8707 H         1 UNK         0.3198 
    107 H107      -54.3834  -26.4488   15.7135 H         1 UNK         0.0843 
    108 H108      -52.3923  -27.8728   15.9461 H         1 UNK         0.0831 
    109 H109      -52.3028  -28.1261   14.1998 H         1 UNK         0.0831 
    110 H110      -53.6319  -28.8019   15.1289 H         1 UNK         0.0831 
    111 H111      -51.8956  -25.7460   14.4834 H         1 UNK         0.3133 
    112 H112      -51.5516  -23.6083   13.4040 H         1 UNK         0.0566 
    113 H113      -51.7479  -21.1501   13.7190 H         1 UNK         0.0814 
    114 H114      -53.1755  -21.3749   14.7287 H         1 UNK         0.0814 
    115 H115      -53.2155  -21.8306   13.0347 H         1 UNK         0.0814 
    116 H116      -50.2356  -23.6168   15.1749 H         1 UNK         0.3091 
    117 H117      -49.8113  -22.0731   17.8741 H         1 UNK         0.0702 
    118 H118      -49.9680  -23.7375   19.7397 H         1 UNK         0.0785 
    119 H119      -51.2508  -24.5871   18.8762 H         1 UNK         0.0785 
    120 H120      -51.5045  -22.9454   19.4521 H         1 UNK         0.0785 
    121 H121      -49.2210  -24.9081   17.5096 H         1 UNK         0.2998 
    122 H122      -46.4275  -24.3169   15.3756 H         1 UNK         0.0697 
    123 H123      -46.7725  -25.4203   18.2314 H         1 UNK         0.0825 
    124 H124      -45.8133  -23.9969   17.8507 H         1 UNK         0.0825 
    125 H125      -45.3401  -25.5531   17.2131 H         1 UNK         0.0825 
    126 H126      -48.7477  -25.7129   15.4521 H         1 UNK         0.3029 
    127 H127      -47.7620  -29.0522   14.8449 H         1 UNK         0.0897 
    128 H128      -50.0554  -27.4481   16.0999 H         1 UNK         0.0792 
    129 H129      -49.0832  -28.6707   16.8973 H         1 UNK         0.0792 
    130 H130      -50.1311  -29.1252   15.5649 H         1 UNK         0.0792 
    131 H131      -48.3249  -28.3151   12.8493 H         1 UNK         0.3086 
    132 H132      -50.0070  -27.6099   11.2840 H         1 UNK         0.0583 
    133 H133      -51.7447  -25.8544   11.7963 H         1 UNK         0.1020 
    134 H134      -50.5385  -24.6157   11.5692 H         1 UNK         0.1020 
    135 H135      -53.4353  -26.0057   10.2106 H         1 UNK         0.0694 
    136 H136      -53.3426  -25.7656    8.4933 H         1 UNK         0.0694 
    137 H137      -48.3568  -25.3789   10.5823 H         1 UNK         0.2989 
    138 H138      -45.2847  -26.7693   10.7932 H         1 UNK         0.1055 
    139 H139      -46.6781  -27.3505    8.1232 H         1 UNK         0.0806 
    140 H140      -44.9468  -27.1078    8.3407 H         1 UNK         0.0806 
    141 H141      -45.7389  -28.4942    9.0686 H         1 UNK         0.0806 
    142 H142      -46.8297  -24.9974    8.9561 H         1 UNK         0.3061 
    143 H143      -45.9360  -22.0943   10.6464 H         1 UNK         0.0734 
    144 H144      -44.2910  -23.0010    8.2200 H         1 UNK         0.0832 
    145 H145      -44.5605  -21.3293    8.7182 H         1 UNK         0.0832 
    146 H146      -43.6340  -22.4136    9.7405 H         1 UNK         0.0832 
    147 H147      -46.7092  -22.5955    7.9032 H         1 UNK         0.3156 
    148 H148      -50.1836  -22.9183    8.5590 H         1 UNK         0.0589 
    149 H149      -50.3431  -20.9587    7.0801 H         1 UNK         0.0808 
    150 H150      -49.7402  -20.4555    8.6485 H         1 UNK         0.0808 
    151 H151      -48.6280  -20.6047    7.2951 H         1 UNK         0.0808 
    152 H152      -49.1434  -22.8308    6.0589 H         1 UNK         0.3098 
    153 H153      -49.2752  -24.7432    4.8420 H         1 UNK         0.0720 
    154 H154      -46.7917  -24.2815    4.8210 H         1 UNK         0.0791 
    155 H155      -47.1465  -25.7773    3.9727 H         1 UNK         0.0791 
    156 H156      -46.4884  -25.8265    5.6070 H         1 UNK         0.0791 
    157 H157      -49.0932  -26.9314    6.6879 H         1 UNK         0.3028 
@<TRIPOS>BOND
     1    1    2 1    
     2    1   82 1    
     3    1   83 1    
     4    1   84 1    
     5    2    3 2    
     6    2    4 am   BACKBONE|DICT|INTERRES
     7    4    5 1    
     8    4   85 1    
     9    5    6 1    
    10    5   80 1    
    11    5   86 1    
    12    6    7 1    
    13    6   87 1    
    14    6   88 1    
    15    7    8 1    
    16    8    9 1    
    17    8   89 1    
    18    8   90 1    
    19    9   10 ar   
    20    9   14 ar   
    21   10   11 ar   
    22   10   91 1    
    23   11   12 ar   
    24   11   58 1    
    25   12   13 ar   
    26   12   92 1    
    27   13   14 ar   
    28   13   15 1    
    29   14   93 1    
    30   15   16 1    
    31   15   94 1    
    32   15   95 1    
    33   16   17 1    
    34   17   18 1    
    35   17   96 1    
    36   17   97 1    
    37   18   19 1    
    38   18   22 1    
    39   18   98 1    
    40   19   20 am   BACKBONE|DICT|INTERRES
    41   19   21 2    
    42   20   99 1    
    43   20  100 1    
    44   22   23 am   BACKBONE|DICT|INTERRES
    45   22  101 1    
    46   23   24 2    
    47   23   25 1    
    48   25   26 1    
    49   25   27 1    
    50   25  102 1    
    51   26  103 1    
    52   26  104 1    
    53   26  105 1    
    54   27   28 am   BACKBONE|DICT|INTERRES
    55   27  106 1    
    56   28   29 2    
    57   28   30 1    
    58   30   31 1    
    59   30   32 1    
    60   30  107 1    
    61   31  108 1    
    62   31  109 1    
    63   31  110 1    
    64   32   33 am   BACKBONE|DICT|INTERRES
    65   32  111 1    
    66   33   34 2    
    67   33   35 1    
    68   35   36 1    
    69   35   37 1    
    70   35  112 1    
    71   36  113 1    
    72   36  114 1    
    73   36  115 1    
    74   37   38 am   BACKBONE|DICT|INTERRES
    75   37  116 1    
    76   38   39 2    
    77   38   40 1    
    78   40   41 1    
    79   40   42 1    
    80   40  117 1    
    81   41  118 1    
    82   41  119 1    
    83   41  120 1    
    84   42   43 am   BACKBONE|DICT|INTERRES
    85   42  121 1    
    86   43   44 2    
    87   43   45 1    
    88   45   46 1    
    89   45   47 1    
    90   45  122 1    
    91   46  123 1    
    92   46  124 1    
    93   46  125 1    
    94   47   48 am   BACKBONE|DICT|INTERRES
    95   47  126 1    
    96   48   49 2    
    97   48   50 1    
    98   50   51 1    
    99   50   52 1    
   100   50  127 1    
   101   51  128 1    
   102   51  129 1    
   103   51  130 1    
   104   52   53 am   BACKBONE|DICT|INTERRES
   105   52  131 1    
   106   53   54 2    
   107   53   55 1    
   108   55   56 1    
   109   55   59 1    
   110   55  132 1    
   111   56   57 1    
   112   56  133 1    
   113   56  134 1    
   114   57   58 1    
   115   58  135 1    
   116   58  136 1    
   117   59   60 am   BACKBONE|DICT|INTERRES
   118   59  137 1    
   119   60   61 2    
   120   60   62 1    
   121   62   63 1    
   122   62   64 1    
   123   62  138 1    
   124   63  139 1    
   125   63  140 1    
   126   63  141 1    
   127   64   65 am   BACKBONE|DICT|INTERRES
   128   64  142 1    
   129   65   66 2    
   130   65   67 1    
   131   67   68 1    
   132   67   69 1    
   133   67  143 1    
   134   68  144 1    
   135   68  145 1    
   136   68  146 1    
   137   69   70 am   BACKBONE|DICT|INTERRES
   138   69  147 1    
   139   70   71 2    
   140   70   72 1    
   141   72   73 1    
   142   72   74 1    
   143   72  148 1    
   144   73  149 1    
   145   73  150 1    
   146   73  151 1    
   147   74   75 am   BACKBONE|DICT|INTERRES
   148   74  152 1    
   149   75   76 2    
   150   75   77 1    
   151   77   78 1    
   152   77   79 1    
   153   77  153 1    
   154   78  154 1    
   155   78  155 1    
   156   78  156 1    
   157   79   80 am   BACKBONE|DICT|INTERRES
   158   79  157 1    
   159   80   81 2    
@<TRIPOS>SUBSTRUCTURE
     1 UNK         1 GROUP             0       ****    0 ROOT    
