@<TRIPOS>MOLECULE
3R207
157   159    1
SMALL
USER_CHARGES


@<TRIPOS>ATOM
      1 CA        -49.6617  -25.1354    0.3331 C.3       0 UNK        -0.1975 
      2 C         -49.2931  -25.5140    1.7596 C.2       0 UNK         0.4852 
      3 O         -48.5193  -26.4499    1.9627 O.2       0 UNK        -0.5216 
      4 N         -49.8210  -24.7793    2.7490 N.am      1 UNK        -0.4461 
      5 CA        -49.6578  -24.9623    4.2019 C.3       1 UNK         0.0864 
      6 C6        -50.1457  -26.3521    4.6951 C.3       14 UNK        -0.0898 
      7 S7        -50.8318  -26.2751    6.3794 S.3       14 UNK        -0.2598 
      8 C8        -51.8455  -27.7828    6.4328 C.3       14 UNK         0.0286 
      9 C9        -52.1734  -28.1500    7.8719 C.ar      14 UNK        -0.0844 
     10 C10       -51.4174  -29.1173    8.5380 C.ar      14 UNK        -0.0881 
     11 C11       -51.6868  -29.4337    9.8716 C.ar      14 UNK        -0.0643 
     12 C12       -52.7120  -28.7640   10.5446 C.ar      14 UNK        -0.0930 
     13 C13       -53.4872  -27.7945    9.8894 C.ar      14 UNK        -0.0827 
     14 C14       -53.2135  -27.5055    8.5480 C.ar      14 UNK        -0.1249 
     15 C15       -54.6048  -27.0065   10.5797 C.3       14 UNK         0.0141 
     16 S16       -55.0323  -27.5423   12.2721 S.3       14 UNK        -0.2313 
     17 C17       -55.8979  -29.1148   11.9322 C.3       14 UNK        -0.0915 
     18 CA        -57.2110  -29.2376   12.7439 C.3       13 UNK         0.0968 
     19 C         -58.0237  -30.4861   12.3078 C.2       13 UNK         0.5732 
     20 N         -58.8731  -30.3490   11.2988 N.am      13 UNK        -0.7310 
     21 O         -57.8660  -31.5814   12.8453 O.2       13 UNK        -0.5035 
     22 N         -56.9231  -29.2333   14.1804 N.am      13 UNK        -0.4233 
     23 C         -57.8042  -29.0562   15.1659 C.2       13 UNK         0.4989 
     24 O         -59.0018  -28.8352   14.9809 O.2       13 UNK        -0.4996 
     25 CA        -57.2647  -29.0991   16.6093 C.3       12 UNK         0.0216 
     26 CB        -57.4252  -30.5076   17.2141 C.3       12 UNK        -0.1964 
     27 N         -55.8905  -28.5945   16.7812 N.am      12 UNK        -0.4276 
     28 C         -54.7307  -29.0989   16.3370 C.2       12 UNK         0.5020 
     29 O         -54.6468  -30.1063   15.6319 O.2       12 UNK        -0.5489 
     30 CA        -53.4596  -28.3146   16.7133 C.3       11 UNK         0.0294 
     31 CB        -52.1727  -29.1150   16.4399 C.3       11 UNK        -0.2019 
     32 N         -53.3680  -27.0342   16.0102 N.am      11 UNK        -0.4493 
     33 C         -54.1054  -25.9437   16.2551 C.2       11 UNK         0.4932 
     34 O         -55.0150  -25.9039   17.0874 O.2       11 UNK        -0.5029 
     35 CA        -53.7099  -24.6839   15.4624 C.3       10 UNK         0.0280 
     36 CB        -54.5894  -23.4577   15.7833 C.3       10 UNK        -0.1976 
     37 N         -52.2852  -24.3743   15.6353 N.am      10 UNK        -0.4242 
     38 C         -51.6337  -24.1226   16.7829 C.2       10 UNK         0.5072 
     39 O         -52.1837  -23.9960   17.8778 O.2       10 UNK        -0.5224 
     40 CA        -50.0978  -24.0277   16.7187 C.3       9 UNK         0.0343 
     41 CB        -49.4722  -25.3262   17.2552 C.3       9 UNK        -0.2003 
     42 N         -49.5793  -23.7743   15.3728 N.am      9 UNK        -0.4272 
     43 C         -49.6313  -22.5923   14.7432 C.2       9 UNK         0.4988 
     44 O         -50.0654  -21.5599   15.2552 O.2       9 UNK        -0.5108 
     45 CA        -49.1452  -22.5668   13.2828 C.3       8 UNK         0.0248 
     46 CB        -47.6123  -22.4764   13.2167 C.3       8 UNK        -0.2001 
     47 N         -49.6064  -23.7228   12.5076 N.am      8 UNK        -0.4140 
     48 C         -50.8934  -24.0132   12.2621 C.2       8 UNK         0.5028 
     49 O         -51.8409  -23.3225   12.6351 O.2       8 UNK        -0.5428 
     50 CA        -51.1724  -25.3162   11.5053 C.3       7 UNK         0.0264 
     51 CB        -50.9664  -25.1173    9.9967 C.3       7 UNK        -0.1988 
     52 N         -50.3269  -26.4062   11.9919 N.am      7 UNK        -0.4454 
     53 C         -50.5346  -27.0527   13.1482 C.2       7 UNK         0.5027 
     54 O         -51.4830  -26.8192   13.8987 O.2       7 UNK        -0.5083 
     55 CA        -49.4974  -28.1140   13.5694 C.3       6 UNK         0.0844 
     56 C56       -49.8729  -29.5256   13.0484 C.3       14 UNK        -0.0967 
     57 S57       -49.3596  -29.8503   11.3194 S.3       14 UNK        -0.2604 
     58 C58       -50.8782  -30.5151   10.5708 C.3       14 UNK         0.0134 
     59 N         -48.1244  -27.7493   13.2156 N.am      6 UNK        -0.4116 
     60 C         -47.4533  -26.6736   13.6451 C.2       5 UNK         0.5034 
     61 O         -47.8841  -25.8817   14.4806 O.2       5 UNK        -0.5045 
     62 CA        -46.0976  -26.4027   12.9680 C.3       5 UNK         0.0224 
     63 CB        -44.9652  -27.1234   13.7155 C.3       5 UNK        -0.1978 
     64 N         -46.0775  -26.7879   11.5503 N.am      5 UNK        -0.4737 
     65 C         -46.8904  -26.2767   10.6167 C.2       4 UNK         0.5027 
     66 O         -47.7004  -25.3753   10.8422 O.2       4 UNK        -0.5211 
     67 CA        -46.7987  -26.8944    9.2155 C.3       4 UNK         0.0297 
     68 CB        -48.1722  -26.9680    8.5330 C.3       4 UNK        -0.1993 
     69 N         -45.8924  -26.1180    8.3763 N.am      4 UNK        -0.4486 
     70 C         -44.5617  -26.2585    8.3628 C.2       3 UNK         0.4961 
     71 O         -43.9629  -27.0582    9.0849 O.2       3 UNK        -0.5105 
     72 CA        -43.7580  -25.3568    7.3999 C.3       3 UNK         0.0299 
     73 CB        -42.5110  -26.0744    6.8398 C.3       3 UNK        -0.1972 
     74 N         -44.5350  -24.7535    6.3047 N.am      3 UNK        -0.4305 
     75 C         -45.2078  -25.3844    5.3298 C.2       2 UNK         0.5006 
     76 O         -45.3300  -26.6078    5.2413 O.2       2 UNK        -0.5106 
     77 CA        -45.8137  -24.4846    4.2421 C.3       2 UNK         0.0296 
     78 CB        -44.9850  -24.5656    2.9495 C.3       2 UNK        -0.2002 
     79 N         -47.1987  -24.8456    3.9458 N.am      2 UNK        -0.4032 
     80 C         -48.2490  -24.5995    4.7384 C.2       1 UNK         0.5000 
     81 O         -48.1424  -24.0514    5.8378 O.2       1 UNK        -0.5238 
     82 H82       -50.1403  -25.9778   -0.1656 H         1 UNK         0.0889 
     83 H83       -48.7659  -24.8710   -0.2281 H         1 UNK         0.0889 
     84 H84       -50.3462  -24.2880    0.2990 H         1 UNK         0.0889 
     85 H85       -50.4161  -24.0017    2.4964 H         1 UNK         0.3028 
     86 H86       -50.3270  -24.2105    4.6243 H         1 UNK         0.0864 
     87 H87       -49.3481  -27.0966    4.6565 H         1 UNK         0.0720 
     88 H88       -50.9365  -26.7231    4.0409 H         1 UNK         0.0720 
     89 H89       -51.3115  -28.6007    5.9463 H         1 UNK         0.0814 
     90 H90       -52.7632  -27.6272    5.8637 H         1 UNK         0.0814 
     91 H91       -50.6113  -29.6203    8.0214 H         1 UNK         0.1469 
     92 H92       -52.8910  -29.0060   11.5815 H         1 UNK         0.1381 
     93 H93       -53.7913  -26.7494    8.0338 H         1 UNK         0.1206 
     94 H94       -55.5048  -27.0382    9.9638 H         1 UNK         0.0813 
     95 H95       -54.3085  -25.9581   10.6238 H         1 UNK         0.0813 
     96 H96       -55.2218  -29.9397   12.1650 H         1 UNK         0.0638 
     97 H97       -56.1050  -29.1840   10.8628 H         1 UNK         0.0638 
     98 H98       -57.8236  -28.3581   12.5353 H         1 UNK         0.0568 
     99 H99       -59.0029  -29.4595   10.8425 H         1 UNK         0.3450 
    100 H100      -59.4002  -31.1511   10.9908 H         1 UNK         0.3450 
    101 H101      -55.9769  -29.4870   14.4489 H         1 UNK         0.2987 
    102 H102      -57.8943  -28.4219   17.1888 H         1 UNK         0.0766 
    103 H103      -56.8404  -31.2527   16.6736 H         1 UNK         0.0798 
    104 H104      -58.4670  -30.8289   17.1791 H         1 UNK         0.0798 
    105 H105      -57.1144  -30.5292   18.2586 H         1 UNK         0.0798 
    106 H106      -55.8217  -27.6841   17.2308 H         1 UNK         0.3198 
    107 H107      -53.5040  -28.1149   17.7862 H         1 UNK         0.0843 
    108 H108      -52.0529  -29.3307   15.3779 H         1 UNK         0.0831 
    109 H109      -52.1868  -30.0697   16.9673 H         1 UNK         0.0831 
    110 H110      -51.2883  -28.5723   16.7740 H         1 UNK         0.0831 
    111 H111      -52.6708  -26.9753   15.2682 H         1 UNK         0.3133 
    112 H112      -53.8469  -24.9236   14.4065 H         1 UNK         0.0566 
    113 H113      -55.6376  -23.6644   15.5645 H         1 UNK         0.0814 
    114 H114      -54.5274  -23.1740   16.8343 H         1 UNK         0.0814 
    115 H115      -54.2962  -22.5952   15.1846 H         1 UNK         0.0814 
    116 H116      -51.7278  -24.4600   14.7959 H         1 UNK         0.3091 
    117 H117      -49.7901  -23.2051   17.3677 H         1 UNK         0.0702 
    118 H118      -48.3839  -25.2640   17.2748 H         1 UNK         0.0785 
    119 H119      -49.7472  -26.1868   16.6434 H         1 UNK         0.0785 
    120 H120      -49.8038  -25.5303   18.2742 H         1 UNK         0.0785 
    121 H121      -49.1227  -24.5570   14.9089 H         1 UNK         0.2998 
    122 H122      -49.5587  -21.6730   12.8113 H         1 UNK         0.0697 
    123 H123      -47.1354  -23.3304   13.6975 H         1 UNK         0.0825 
    124 H124      -47.2543  -21.5784   13.7218 H         1 UNK         0.0825 
    125 H125      -47.2599  -22.4319   12.1859 H         1 UNK         0.0825 
    126 H126      -48.8948  -24.3314   12.1135 H         1 UNK         0.3029 
    127 H127      -52.2139  -25.5943   11.6761 H         1 UNK         0.0897 
    128 H128      -50.0050  -24.6573    9.7683 H         1 UNK         0.0792 
    129 H129      -51.7403  -24.4707    9.5822 H         1 UNK         0.0792 
    130 H130      -51.0138  -26.0643    9.4625 H         1 UNK         0.0792 
    131 H131      -49.4985  -26.6135   11.4513 H         1 UNK         0.3086 
    132 H132      -49.5347  -28.1515   14.6604 H         1 UNK         0.0583 
    133 H133      -49.3807  -30.2737   13.6717 H         1 UNK         0.1020 
    134 H134      -50.9412  -29.7135   13.1720 H         1 UNK         0.1020 
    135 H135      -50.5960  -31.2804    9.8461 H         1 UNK         0.0694 
    136 H136      -51.4833  -31.0276   11.3200 H         1 UNK         0.0694 
    137 H137      -47.6900  -28.3338   12.5160 H         1 UNK         0.2989 
    138 H138      -45.9148  -25.3276   13.0212 H         1 UNK         0.1055 
    139 H139      -44.9489  -26.8362   14.7680 H         1 UNK         0.0806 
    140 H140      -43.9904  -26.8703   13.2980 H         1 UNK         0.0806 
    141 H141      -45.0772  -28.2076   13.6750 H         1 UNK         0.0806 
    142 H142      -45.3994  -27.4843   11.2699 H         1 UNK         0.3061 
    143 H143      -46.4262  -27.9172    9.3084 H         1 UNK         0.0734 
    144 H144      -48.1131  -27.4945    7.5803 H         1 UNK         0.0832 
    145 H145      -48.8946  -27.5009    9.1525 H         1 UNK         0.0832 
    146 H146      -48.5765  -25.9748    8.3363 H         1 UNK         0.0832 
    147 H147      -46.3114  -25.4190    7.7793 H         1 UNK         0.3156 
    148 H148      -43.4064  -24.5221    8.0080 H         1 UNK         0.0589 
    149 H149      -42.7802  -26.9622    6.2665 H         1 UNK         0.0808 
    150 H150      -41.9327  -25.4179    6.1898 H         1 UNK         0.0808 
    151 H151      -41.8465  -26.3961    7.6428 H         1 UNK         0.0808 
    152 H152      -44.5210  -23.7425    6.2820 H         1 UNK         0.3098 
    153 H153      -45.8028  -23.4485    4.5880 H         1 UNK         0.0720 
    154 H154      -45.3741  -23.8924    2.1853 H         1 UNK         0.0791 
    155 H155      -44.9810  -25.5753    2.5363 H         1 UNK         0.0791 
    156 H156      -43.9471  -24.2835    3.1319 H         1 UNK         0.0791 
    157 H157      -47.3742  -25.3779    3.0989 H         1 UNK         0.3028 
@<TRIPOS>BOND
     1    1    2 1    
     2    1   82 1    
     3    1   83 1    
     4    1   84 1    
     5    2    3 2    
     6    2    4 am   BACKBONE|DICT|INTERRES
     7    4    5 1    
     8    4   85 1    
     9    5    6 1    
    10    5   80 1    
    11    5   86 1    
    12    6    7 1    
    13    6   87 1    
    14    6   88 1    
    15    7    8 1    
    16    8    9 1    
    17    8   89 1    
    18    8   90 1    
    19    9   10 ar   
    20    9   14 ar   
    21   10   11 ar   
    22   10   91 1    
    23   11   12 ar   
    24   11   58 1    
    25   12   13 ar   
    26   12   92 1    
    27   13   14 ar   
    28   13   15 1    
    29   14   93 1    
    30   15   16 1    
    31   15   94 1    
    32   15   95 1    
    33   16   17 1    
    34   17   18 1    
    35   17   96 1    
    36   17   97 1    
    37   18   19 1    
    38   18   22 1    
    39   18   98 1    
    40   19   20 am   BACKBONE|DICT|INTERRES
    41   19   21 2    
    42   20   99 1    
    43   20  100 1    
    44   22   23 am   BACKBONE|DICT|INTERRES
    45   22  101 1    
    46   23   24 2    
    47   23   25 1    
    48   25   26 1    
    49   25   27 1    
    50   25  102 1    
    51   26  103 1    
    52   26  104 1    
    53   26  105 1    
    54   27   28 am   BACKBONE|DICT|INTERRES
    55   27  106 1    
    56   28   29 2    
    57   28   30 1    
    58   30   31 1    
    59   30   32 1    
    60   30  107 1    
    61   31  108 1    
    62   31  109 1    
    63   31  110 1    
    64   32   33 am   BACKBONE|DICT|INTERRES
    65   32  111 1    
    66   33   34 2    
    67   33   35 1    
    68   35   36 1    
    69   35   37 1    
    70   35  112 1    
    71   36  113 1    
    72   36  114 1    
    73   36  115 1    
    74   37   38 am   BACKBONE|DICT|INTERRES
    75   37  116 1    
    76   38   39 2    
    77   38   40 1    
    78   40   41 1    
    79   40   42 1    
    80   40  117 1    
    81   41  118 1    
    82   41  119 1    
    83   41  120 1    
    84   42   43 am   BACKBONE|DICT|INTERRES
    85   42  121 1    
    86   43   44 2    
    87   43   45 1    
    88   45   46 1    
    89   45   47 1    
    90   45  122 1    
    91   46  123 1    
    92   46  124 1    
    93   46  125 1    
    94   47   48 am   BACKBONE|DICT|INTERRES
    95   47  126 1    
    96   48   49 2    
    97   48   50 1    
    98   50   51 1    
    99   50   52 1    
   100   50  127 1    
   101   51  128 1    
   102   51  129 1    
   103   51  130 1    
   104   52   53 am   BACKBONE|DICT|INTERRES
   105   52  131 1    
   106   53   54 2    
   107   53   55 1    
   108   55   56 1    
   109   55   59 1    
   110   55  132 1    
   111   56   57 1    
   112   56  133 1    
   113   56  134 1    
   114   57   58 1    
   115   58  135 1    
   116   58  136 1    
   117   59   60 am   BACKBONE|DICT|INTERRES
   118   59  137 1    
   119   60   61 2    
   120   60   62 1    
   121   62   63 1    
   122   62   64 1    
   123   62  138 1    
   124   63  139 1    
   125   63  140 1    
   126   63  141 1    
   127   64   65 am   BACKBONE|DICT|INTERRES
   128   64  142 1    
   129   65   66 2    
   130   65   67 1    
   131   67   68 1    
   132   67   69 1    
   133   67  143 1    
   134   68  144 1    
   135   68  145 1    
   136   68  146 1    
   137   69   70 am   BACKBONE|DICT|INTERRES
   138   69  147 1    
   139   70   71 2    
   140   70   72 1    
   141   72   73 1    
   142   72   74 1    
   143   72  148 1    
   144   73  149 1    
   145   73  150 1    
   146   73  151 1    
   147   74   75 am   BACKBONE|DICT|INTERRES
   148   74  152 1    
   149   75   76 2    
   150   75   77 1    
   151   77   78 1    
   152   77   79 1    
   153   77  153 1    
   154   78  154 1    
   155   78  155 1    
   156   78  156 1    
   157   79   80 am   BACKBONE|DICT|INTERRES
   158   79  157 1    
   159   80   81 2    
@<TRIPOS>SUBSTRUCTURE
     1 UNK         1 GROUP             0       ****    0 ROOT    
