@<TRIPOS>MOLECULE
3R207
157   159    1
SMALL
USER_CHARGES


@<TRIPOS>ATOM
      1 CA        -46.9765  -30.3874    3.4367 C.3       0 UNK        -0.1975 
      2 C         -47.1572  -29.0196    4.0786 C.2       0 UNK         0.4852 
      3 O         -46.4314  -28.6937    5.0188 O.2       0 UNK        -0.5216 
      4 N         -48.0977  -28.2160    3.5519 N.am      1 UNK        -0.4461 
      5 CA        -48.5560  -26.8900    4.0166 C.3       1 UNK         0.0864 
      6 C6        -49.6214  -26.9690    5.1490 C.3       14 UNK        -0.0898 
      7 S7        -49.0189  -27.6351    6.7443 S.3       14 UNK        -0.2598 
      8 C8        -50.1722  -29.0199    7.0292 C.3       14 UNK         0.0286 
      9 C9        -51.4955  -28.6367    7.6974 C.ar      14 UNK        -0.0844 
     10 C10       -52.0140  -27.3331    7.6687 C.ar      14 UNK        -0.0881 
     11 C11       -53.2236  -27.0300    8.2987 C.ar      14 UNK        -0.0643 
     12 C12       -53.9315  -28.0439    8.9464 C.ar      14 UNK        -0.0930 
     13 C13       -53.4197  -29.3411    9.0074 C.ar      14 UNK        -0.0827 
     14 C14       -52.2099  -29.6333    8.3723 C.ar      14 UNK        -0.1249 
     15 C15       -54.1772  -30.4117    9.7755 C.3       14 UNK         0.0141 
     16 S16       -54.1196  -30.0785   11.5644 S.3       14 UNK        -0.2313 
     17 C17       -55.4161  -31.2084   12.1722 C.3       14 UNK        -0.0915 
     18 CA        -56.8544  -30.6183   12.0523 C.3       13 UNK         0.0968 
     19 C         -57.9592  -31.6364   12.4737 C.2       13 UNK         0.5732 
     20 N         -59.0889  -31.1989   13.0175 N.am      13 UNK        -0.7310 
     21 O         -57.8112  -32.8401   12.2724 O.2       13 UNK        -0.5035 
     22 N         -56.9885  -29.2706   12.6395 N.am      13 UNK        -0.4233 
     23 C         -56.8703  -28.9513   13.9346 C.2       13 UNK         0.4989 
     24 O         -56.6648  -29.7669   14.8373 O.2       13 UNK        -0.4996 
     25 CA        -57.0741  -27.4622   14.2695 C.3       12 UNK         0.0216 
     26 CB        -58.5708  -27.1036   14.2499 C.3       12 UNK        -0.1964 
     27 N         -56.5252  -27.1144   15.5814 N.am      12 UNK        -0.4276 
     28 C         -55.2225  -26.9653   15.8481 C.2       12 UNK         0.5020 
     29 O         -54.3295  -27.0539   15.0014 O.2       12 UNK        -0.5489 
     30 CA        -54.8658  -26.7119   17.3236 C.3       11 UNK         0.0294 
     31 CB        -54.6524  -28.0460   18.0579 C.3       11 UNK        -0.2019 
     32 N         -53.6569  -25.9019   17.4602 N.am      11 UNK        -0.4493 
     33 C         -53.5502  -24.6004   17.1695 C.2       11 UNK         0.4932 
     34 O         -54.5110  -23.8959   16.8555 O.2       11 UNK        -0.5029 
     35 CA        -52.1471  -23.9620   17.2458 C.3       10 UNK         0.0280 
     36 CB        -51.8996  -23.3306   18.6297 C.3       10 UNK        -0.1976 
     37 N         -51.0360  -24.8430   16.8497 N.am      10 UNK        -0.4242 
     38 C         -50.5752  -25.9524   17.4481 C.2       10 UNK         0.5072 
     39 O         -51.0456  -26.4123   18.4893 O.2       10 UNK        -0.5224 
     40 CA        -49.4378  -26.7200   16.7530 C.3       9 UNK         0.0343 
     41 CB        -49.9675  -28.0516   16.1928 C.3       9 UNK        -0.2003 
     42 N         -48.8095  -25.9578   15.6700 N.am      9 UNK        -0.4272 
     43 C         -47.8148  -25.0769   15.8478 C.2       9 UNK         0.4988 
     44 O         -47.3066  -24.8291   16.9423 O.2       9 UNK        -0.5108 
     45 CA        -47.3036  -24.3391   14.5983 C.3       8 UNK         0.0248 
     46 CB        -46.3901  -25.2503   13.7623 C.3       8 UNK        -0.2001 
     47 N         -48.3760  -23.8101   13.7520 N.am      8 UNK        -0.4140 
     48 C         -49.2496  -22.8598   14.1170 C.2       8 UNK         0.5028 
     49 O         -49.2784  -22.3402   15.2325 O.2       8 UNK        -0.5428 
     50 CA        -50.2770  -22.4269   13.0619 C.3       7 UNK         0.0264 
     51 CB        -49.6504  -21.4580   12.0453 C.3       7 UNK        -0.1988 
     52 N         -50.8327  -23.5883   12.3678 N.am      7 UNK        -0.4454 
     53 C         -51.8528  -24.3182   12.8409 C.2       7 UNK         0.5027 
     54 O         -52.4664  -24.0303   13.8680 O.2       7 UNK        -0.5083 
     55 CA        -52.2609  -25.5842   12.0557 C.3       6 UNK         0.0844 
     56 C56       -53.4435  -25.2893   11.0965 C.3       14 UNK        -0.0967 
     57 S57       -52.9426  -24.5340    9.5032 S.3       14 UNK        -0.2604 
     58 C58       -53.7673  -25.6080    8.2812 C.3       14 UNK         0.0134 
     59 N         -51.1375  -26.2437   11.3802 N.am      6 UNK        -0.4116 
     60 C         -50.0695  -26.7683   11.9944 C.2       5 UNK         0.5034 
     61 O         -49.9211  -26.7925   13.2146 O.2       5 UNK        -0.5045 
     62 CA        -48.9371  -27.2947   11.0982 C.3       5 UNK         0.0224 
     63 CB        -49.2147  -28.7422   10.6694 C.3       5 UNK        -0.1978 
     64 N         -48.6539  -26.4656    9.9194 N.am      5 UNK        -0.4737 
     65 C         -48.3406  -25.1614    9.9511 C.2       4 UNK         0.5027 
     66 O         -48.3966  -24.4738   10.9720 O.2       4 UNK        -0.5211 
     67 CA        -47.8577  -24.5390    8.6264 C.3       4 UNK         0.0297 
     68 CB        -47.3988  -23.0745    8.7857 C.3       4 UNK        -0.1993 
     69 N         -46.8077  -25.3361    7.9778 N.am      4 UNK        -0.4486 
     70 C         -45.6405  -25.7468    8.5051 C.2       3 UNK         0.4961 
     71 O         -45.2516  -25.4606    9.6382 O.2       3 UNK        -0.5105 
     72 CA        -44.7504  -26.6487    7.6281 C.3       3 UNK         0.0299 
     73 CB        -44.9843  -28.1261    7.9856 C.3       3 UNK        -0.1972 
     74 N         -44.9686  -26.4617    6.1917 N.am      3 UNK        -0.4305 
     75 C         -44.5882  -25.3749    5.4998 C.2       2 UNK         0.5006 
     76 O         -43.9212  -24.4586    5.9832 O.2       2 UNK        -0.5106 
     77 CA        -45.0377  -25.2707    4.0266 C.3       2 UNK         0.0296 
     78 CB        -43.9083  -25.7251    3.0873 C.3       2 UNK        -0.2002 
     79 N         -46.2526  -26.0338    3.7221 N.am      2 UNK        -0.4032 
     80 C         -47.4479  -25.8443    4.3007 C.2       1 UNK         0.5000 
     81 O         -47.6799  -24.8993    5.0586 O.2       1 UNK        -0.5238 
     82 H82       -45.9596  -30.4930    3.0592 H         1 UNK         0.0889 
     83 H83       -47.6664  -30.5460    2.6075 H         1 UNK         0.0889 
     84 H84       -47.1483  -31.1703    4.1751 H         1 UNK         0.0889 
     85 H85       -48.6116  -28.5658    2.7542 H         1 UNK         0.3028 
     86 H86       -49.0757  -26.4734    3.1518 H         1 UNK         0.0864 
     87 H87       -50.4622  -27.5718    4.8023 H         1 UNK         0.0720 
     88 H88       -50.0456  -25.9804    5.3361 H         1 UNK         0.0720 
     89 H89       -49.6535  -29.7432    7.6607 H         1 UNK         0.0814 
     90 H90       -50.3747  -29.5336    6.0882 H         1 UNK         0.0814 
     91 H91       -51.4842  -26.5382    7.1662 H         1 UNK         0.1469 
     92 H92       -54.8715  -27.8209    9.4322 H         1 UNK         0.1381 
     93 H93       -51.8151  -30.6395    8.4144 H         1 UNK         0.1206 
     94 H94       -53.7648  -31.4027    9.5794 H         1 UNK         0.0813 
     95 H95       -55.2118  -30.4304    9.4315 H         1 UNK         0.0813 
     96 H96       -55.3339  -32.1473   11.6213 H         1 UNK         0.0638 
     97 H97       -55.1917  -31.4491   13.2125 H         1 UNK         0.0638 
     98 H98       -57.0425  -30.4703   10.9891 H         1 UNK         0.0568 
     99 H99       -59.2322  -30.2159   13.1813 H         1 UNK         0.3450 
    100 H100      -59.8010  -31.8643   13.2745 H         1 UNK         0.3450 
    101 H101      -57.1902  -28.5345   11.9789 H         1 UNK         0.2987 
    102 H102      -56.5598  -26.8654   13.5126 H         1 UNK         0.0766 
    103 H103      -59.0116  -27.2934   13.2703 H         1 UNK         0.0798 
    104 H104      -58.7280  -26.0471   14.4704 H         1 UNK         0.0798 
    105 H105      -59.1358  -27.6858   14.9792 H         1 UNK         0.0798 
    106 H106      -57.1828  -27.0801   16.3468 H         1 UNK         0.3198 
    107 H107      -55.6891  -26.1746   17.7999 H         1 UNK         0.0843 
    108 H108      -53.8251  -28.6127   17.6278 H         1 UNK         0.0831 
    109 H109      -55.5421  -28.6744   17.9970 H         1 UNK         0.0831 
    110 H110      -54.4382  -27.8889   19.1154 H         1 UNK         0.0831 
    111 H111      -52.8097  -26.3788   17.7525 H         1 UNK         0.3133 
    112 H112      -52.1398  -23.1516   16.5151 H         1 UNK         0.0566 
    113 H113      -50.9386  -22.8173   18.6639 H         1 UNK         0.0814 
    114 H114      -51.9131  -24.0738   19.4274 H         1 UNK         0.0814 
    115 H115      -52.6694  -22.5939   18.8626 H         1 UNK         0.0814 
    116 H116      -50.5891  -24.5826   15.9816 H         1 UNK         0.3091 
    117 H117      -48.6858  -26.9503   17.5111 H         1 UNK         0.0702 
    118 H118      -49.1840  -28.6064   15.6761 H         1 UNK         0.0785 
    119 H119      -50.7887  -27.8964   15.4908 H         1 UNK         0.0785 
    120 H120      -50.3434  -28.6905   16.9936 H         1 UNK         0.0785 
    121 H121      -49.1636  -26.1353   14.7301 H         1 UNK         0.2998 
    122 H122      -46.7097  -23.4877   14.9373 H         1 UNK         0.0697 
    123 H123      -46.9201  -26.1331   13.4057 H         1 UNK         0.0825 
    124 H124      -45.5397  -25.5968   14.3516 H         1 UNK         0.0825 
    125 H125      -45.9916  -24.7268   12.8920 H         1 UNK         0.0825 
    126 H126      -48.4100  -24.1485   12.7916 H         1 UNK         0.3029 
    127 H127      -51.0821  -21.8946   13.5743 H         1 UNK         0.0897 
    128 H128      -48.8033  -21.9030   11.5229 H         1 UNK         0.0792 
    129 H129      -49.2867  -20.5580   12.5428 H         1 UNK         0.0792 
    130 H130      -50.3782  -21.1432   11.2969 H         1 UNK         0.0792 
    131 H131      -50.3240  -23.9186   11.5558 H         1 UNK         0.3086 
    132 H132      -52.6249  -26.2916   12.8047 H         1 UNK         0.0583 
    133 H133      -53.9766  -26.2196   10.9119 H         1 UNK         0.1020 
    134 H134      -54.1840  -24.6425   11.5722 H         1 UNK         0.1020 
    135 H135      -54.8428  -25.6031    8.4664 H         1 UNK         0.0694 
    136 H136      -53.6290  -25.1797    7.2873 H         1 UNK         0.0694 
    137 H137      -51.1712  -26.2510   10.3707 H         1 UNK         0.2989 
    138 H138      -48.0268  -27.2979   11.6997 H         1 UNK         0.1055 
    139 H139      -50.1441  -28.8209   10.1081 H         1 UNK         0.0806 
    140 H140      -48.4092  -29.1408   10.0524 H         1 UNK         0.0806 
    141 H141      -49.3097  -29.3928   11.5400 H         1 UNK         0.0806 
    142 H142      -48.5972  -26.9442    9.0293 H         1 UNK         0.3061 
    143 H143      -48.7141  -24.5477    7.9494 H         1 UNK         0.0734 
    144 H144      -46.5698  -22.9852    9.4895 H         1 UNK         0.0832 
    145 H145      -47.0774  -22.6548    7.8324 H         1 UNK         0.0832 
    146 H146      -48.2121  -22.4493    9.1567 H         1 UNK         0.0832 
    147 H147      -47.0146  -25.6080    7.0230 H         1 UNK         0.3156 
    148 H148      -43.7089  -26.4050    7.8500 H         1 UNK         0.0589 
    149 H149      -44.7898  -28.3081    9.0436 H         1 UNK         0.0808 
    150 H150      -46.0132  -28.4306    7.7855 H         1 UNK         0.0808 
    151 H151      -44.3256  -28.7825    7.4162 H         1 UNK         0.0808 
    152 H152      -45.4989  -27.1917    5.7170 H         1 UNK         0.3098 
    153 H153      -45.2510  -24.2184    3.8259 H         1 UNK         0.0720 
    154 H154      -42.9962  -25.1539    3.2691 H         1 UNK         0.0791 
    155 H155      -44.1777  -25.5775    2.0410 H         1 UNK         0.0791 
    156 H156      -43.6660  -26.7799    3.2279 H         1 UNK         0.0791 
    157 H157      -46.1434  -26.8428    3.1272 H         1 UNK         0.3028 
@<TRIPOS>BOND
     1    1    2 1    
     2    1   82 1    
     3    1   83 1    
     4    1   84 1    
     5    2    3 2    
     6    2    4 am   BACKBONE|DICT|INTERRES
     7    4    5 1    
     8    4   85 1    
     9    5    6 1    
    10    5   80 1    
    11    5   86 1    
    12    6    7 1    
    13    6   87 1    
    14    6   88 1    
    15    7    8 1    
    16    8    9 1    
    17    8   89 1    
    18    8   90 1    
    19    9   10 ar   
    20    9   14 ar   
    21   10   11 ar   
    22   10   91 1    
    23   11   12 ar   
    24   11   58 1    
    25   12   13 ar   
    26   12   92 1    
    27   13   14 ar   
    28   13   15 1    
    29   14   93 1    
    30   15   16 1    
    31   15   94 1    
    32   15   95 1    
    33   16   17 1    
    34   17   18 1    
    35   17   96 1    
    36   17   97 1    
    37   18   19 1    
    38   18   22 1    
    39   18   98 1    
    40   19   20 am   BACKBONE|DICT|INTERRES
    41   19   21 2    
    42   20   99 1    
    43   20  100 1    
    44   22   23 am   BACKBONE|DICT|INTERRES
    45   22  101 1    
    46   23   24 2    
    47   23   25 1    
    48   25   26 1    
    49   25   27 1    
    50   25  102 1    
    51   26  103 1    
    52   26  104 1    
    53   26  105 1    
    54   27   28 am   BACKBONE|DICT|INTERRES
    55   27  106 1    
    56   28   29 2    
    57   28   30 1    
    58   30   31 1    
    59   30   32 1    
    60   30  107 1    
    61   31  108 1    
    62   31  109 1    
    63   31  110 1    
    64   32   33 am   BACKBONE|DICT|INTERRES
    65   32  111 1    
    66   33   34 2    
    67   33   35 1    
    68   35   36 1    
    69   35   37 1    
    70   35  112 1    
    71   36  113 1    
    72   36  114 1    
    73   36  115 1    
    74   37   38 am   BACKBONE|DICT|INTERRES
    75   37  116 1    
    76   38   39 2    
    77   38   40 1    
    78   40   41 1    
    79   40   42 1    
    80   40  117 1    
    81   41  118 1    
    82   41  119 1    
    83   41  120 1    
    84   42   43 am   BACKBONE|DICT|INTERRES
    85   42  121 1    
    86   43   44 2    
    87   43   45 1    
    88   45   46 1    
    89   45   47 1    
    90   45  122 1    
    91   46  123 1    
    92   46  124 1    
    93   46  125 1    
    94   47   48 am   BACKBONE|DICT|INTERRES
    95   47  126 1    
    96   48   49 2    
    97   48   50 1    
    98   50   51 1    
    99   50   52 1    
   100   50  127 1    
   101   51  128 1    
   102   51  129 1    
   103   51  130 1    
   104   52   53 am   BACKBONE|DICT|INTERRES
   105   52  131 1    
   106   53   54 2    
   107   53   55 1    
   108   55   56 1    
   109   55   59 1    
   110   55  132 1    
   111   56   57 1    
   112   56  133 1    
   113   56  134 1    
   114   57   58 1    
   115   58  135 1    
   116   58  136 1    
   117   59   60 am   BACKBONE|DICT|INTERRES
   118   59  137 1    
   119   60   61 2    
   120   60   62 1    
   121   62   63 1    
   122   62   64 1    
   123   62  138 1    
   124   63  139 1    
   125   63  140 1    
   126   63  141 1    
   127   64   65 am   BACKBONE|DICT|INTERRES
   128   64  142 1    
   129   65   66 2    
   130   65   67 1    
   131   67   68 1    
   132   67   69 1    
   133   67  143 1    
   134   68  144 1    
   135   68  145 1    
   136   68  146 1    
   137   69   70 am   BACKBONE|DICT|INTERRES
   138   69  147 1    
   139   70   71 2    
   140   70   72 1    
   141   72   73 1    
   142   72   74 1    
   143   72  148 1    
   144   73  149 1    
   145   73  150 1    
   146   73  151 1    
   147   74   75 am   BACKBONE|DICT|INTERRES
   148   74  152 1    
   149   75   76 2    
   150   75   77 1    
   151   77   78 1    
   152   77   79 1    
   153   77  153 1    
   154   78  154 1    
   155   78  155 1    
   156   78  156 1    
   157   79   80 am   BACKBONE|DICT|INTERRES
   158   79  157 1    
   159   80   81 2    
@<TRIPOS>SUBSTRUCTURE
     1 UNK         1 GROUP             0       ****    0 ROOT    
