@<TRIPOS>MOLECULE
3R207
157   159    1
SMALL
USER_CHARGES


@<TRIPOS>ATOM
      1 CA        -52.4539  -25.6123    3.6065 C.3       0 UNK        -0.1975 
      2 C         -52.2018  -27.0754    3.2468 C.2       0 UNK         0.4852 
      3 O         -52.5788  -27.4988    2.1551 O.2       0 UNK        -0.5216 
      4 N         -51.5913  -27.8887    4.1208 N.am      1 UNK        -0.4461 
      5 CA        -51.0140  -27.5295    5.4220 C.3       1 UNK         0.0864 
      6 C6        -50.6919  -28.7873    6.2671 C.3       14 UNK        -0.0898 
      7 S7        -52.1984  -29.7089    6.7255 S.3       14 UNK        -0.2598 
      8 C8        -52.5088  -29.0874    8.4102 C.3       14 UNK         0.0286 
      9 C9        -52.0071  -30.0357    9.4945 C.ar      14 UNK        -0.0844 
     10 C10       -50.6485  -30.3531    9.6157 C.ar      14 UNK        -0.0881 
     11 C11       -50.2034  -31.2118   10.6275 C.ar      14 UNK        -0.0643 
     12 C12       -51.1255  -31.7337   11.5400 C.ar      14 UNK        -0.0930 
     13 C13       -52.4838  -31.4218   11.4320 C.ar      14 UNK        -0.0827 
     14 C14       -52.9172  -30.5864   10.4008 C.ar      14 UNK        -0.1249 
     15 C15       -53.4833  -31.9695   12.4381 C.3       14 UNK         0.0141 
     16 S16       -53.6380  -30.8229   13.8389 S.3       14 UNK        -0.2313 
     17 C17       -55.4338  -30.5156   13.9465 C.3       14 UNK        -0.0915 
     18 CA        -56.0489  -29.7270   12.7564 C.3       13 UNK         0.0968 
     19 C         -57.5526  -29.4159   13.0169 C.2       13 UNK         0.5732 
     20 N         -57.9779  -28.1592   13.0977 N.am      13 UNK        -0.7310 
     21 O         -58.3544  -30.3393   13.1384 O.2       13 UNK        -0.5035 
     22 N         -55.2552  -28.5493   12.3754 N.am      13 UNK        -0.4233 
     23 C         -55.3033  -27.9796   11.1630 C.2       13 UNK         0.4989 
     24 O         -55.9530  -28.4430   10.2238 O.2       13 UNK        -0.4996 
     25 CA        -54.4809  -26.6931   10.9457 C.3       12 UNK         0.0216 
     26 CB        -55.0578  -25.8039    9.8251 C.3       12 UNK        -0.1964 
     27 N         -54.2595  -25.8966   12.1575 N.am      12 UNK        -0.4276 
     28 C         -55.1755  -25.4166   13.0079 C.2       12 UNK         0.5020 
     29 O         -56.3890  -25.6102   12.8969 O.2       12 UNK        -0.5489 
     30 CA        -54.6135  -24.6305   14.2097 C.3       11 UNK         0.0294 
     31 CB        -55.7210  -24.1438   15.1676 C.3       11 UNK        -0.2019 
     32 N         -53.5874  -25.3698   14.9632 N.am      11 UNK        -0.4493 
     33 C         -53.6943  -26.6025   15.4870 C.2       11 UNK         0.4932 
     34 O         -54.6685  -27.3356   15.3142 O.2       11 UNK        -0.5029 
     35 CA        -52.5377  -27.0972   16.3747 C.3       10 UNK         0.0280 
     36 CB        -52.2871  -28.6066   16.2255 C.3       10 UNK        -0.1976 
     37 N         -51.2824  -26.3869   16.1198 N.am      10 UNK        -0.4242 
     38 C         -50.6959  -25.5446   16.9802 C.2       10 UNK         0.5072 
     39 O         -51.1868  -25.2076   18.0587 O.2       10 UNK        -0.5224 
     40 CA        -49.3209  -24.9844   16.5822 C.3       9 UNK         0.0343 
     41 CB        -48.2129  -25.9952   16.9192 C.3       9 UNK        -0.2003 
     42 N         -49.2152  -24.5971   15.1742 N.am      9 UNK        -0.4272 
     43 C         -49.9164  -23.6119   14.5955 C.2       9 UNK         0.4988 
     44 O         -50.7941  -22.9631   15.1657 O.2       9 UNK        -0.5108 
     45 CA        -49.5789  -23.2962   13.1303 C.3       8 UNK         0.0248 
     46 CB        -48.2719  -22.4959   13.0295 C.3       8 UNK        -0.2001 
     47 N         -49.4934  -24.5077   12.3139 N.am      8 UNK        -0.4140 
     48 C         -50.5661  -25.2204   11.9461 C.2       8 UNK         0.5028 
     49 O         -51.7234  -24.8940   12.2038 O.2       8 UNK        -0.5428 
     50 CA        -50.3126  -26.5436   11.2093 C.3       7 UNK         0.0264 
     51 CB        -50.0614  -26.3035    9.7159 C.3       7 UNK        -0.1988 
     52 N         -49.1981  -27.2980   11.7736 N.am      7 UNK        -0.4454 
     53 C         -49.1766  -27.8054   13.0135 C.2       7 UNK         0.5027 
     54 O         -50.0822  -27.6572   13.8344 O.2       7 UNK        -0.5083 
     55 CA        -47.9030  -28.5701   13.4212 C.3       6 UNK         0.0844 
     56 C56       -47.9549  -30.0455   12.9421 C.3       14 UNK        -0.0967 
     57 S57       -47.6315  -30.2460   11.1499 S.3       14 UNK        -0.2604 
     58 C58       -48.7373  -31.6203   10.7015 C.3       14 UNK         0.0134 
     59 N         -46.6639  -27.9044   13.0023 N.am      6 UNK        -0.4116 
     60 C         -46.3110  -26.6312   13.2270 C.2       5 UNK         0.5034 
     61 O         -47.0000  -25.8259   13.8565 O.2       5 UNK        -0.5045 
     62 CA        -44.9577  -26.1695   12.6492 C.3       5 UNK         0.0224 
     63 CB        -44.3259  -27.1643   11.6462 C.3       5 UNK        -0.1978 
     64 N         -45.0255  -24.8310   12.0491 N.am      5 UNK        -0.4737 
     65 C         -45.8255  -24.4350   11.0499 C.2       4 UNK         0.5027 
     66 O         -46.6959  -25.1409   10.5308 O.2       4 UNK        -0.5211 
     67 CA        -45.5956  -23.0073   10.5359 C.3       4 UNK         0.0297 
     68 CB        -44.1943  -22.8550    9.9103 C.3       4 UNK        -0.1993 
     69 N         -46.6129  -22.7039    9.5359 N.am      4 UNK        -0.4486 
     70 C         -47.0088  -21.4871    9.1458 C.2       3 UNK         0.4961 
     71 O         -46.5715  -20.4446    9.6350 O.2       3 UNK        -0.5105 
     72 CA        -48.0446  -21.4225    8.0046 C.3       3 UNK         0.0299 
     73 CB        -47.8828  -20.1524    7.1481 C.3       3 UNK        -0.1972 
     74 N         -47.9419  -22.5985    7.1336 N.am      3 UNK        -0.4305 
     75 C         -48.7954  -23.6275    7.1269 C.2       2 UNK         0.5006 
     76 O         -49.8301  -23.6730    7.7966 O.2       2 UNK        -0.5106 
     77 CA        -48.4010  -24.8261    6.2549 C.3       2 UNK         0.0296 
     78 CB        -47.1731  -25.5571    6.8378 C.3       2 UNK        -0.2002 
     79 N         -49.5371  -25.7393    6.1883 N.am      2 UNK        -0.4032 
     80 C         -49.7443  -26.6708    5.2525 C.2       1 UNK         0.5000 
     81 O         -48.9799  -26.8802    4.3066 O.2       1 UNK        -0.5238 
     82 H82       -51.5252  -25.0431    3.5894 H         1 UNK         0.0889 
     83 H83       -52.9135  -25.5146    4.5891 H         1 UNK         0.0889 
     84 H84       -53.1324  -25.1572    2.8851 H         1 UNK         0.0889 
     85 H85       -51.4433  -28.8496    3.8487 H         1 UNK         0.3028 
     86 H86       -51.7514  -26.9407    5.9707 H         1 UNK         0.0864 
     87 H87       -50.0330  -29.4615    5.7161 H         1 UNK         0.0720 
     88 H88       -50.1483  -28.5177    7.1728 H         1 UNK         0.0720 
     89 H89       -52.0632  -28.1025    8.5446 H         1 UNK         0.0814 
     90 H90       -53.5850  -28.9373    8.5107 H         1 UNK         0.0814 
     91 H91       -49.9319  -29.9482    8.9167 H         1 UNK         0.1469 
     92 H92       -50.7895  -32.3898   12.3313 H         1 UNK         0.1381 
     93 H93       -53.9693  -30.3566   10.3149 H         1 UNK         0.1206 
     94 H94       -53.1561  -32.9424   12.8078 H         1 UNK         0.0813 
     95 H95       -54.4496  -32.1352   11.9610 H         1 UNK         0.0813 
     96 H96       -55.6032  -29.9717   14.8777 H         1 UNK         0.0638 
     97 H97       -55.9358  -31.4776   14.0647 H         1 UNK         0.0638 
     98 H98       -56.0444  -30.4029   11.9001 H         1 UNK         0.0568 
     99 H99       -58.9553  -27.9816   13.2624 H         1 UNK         0.3450 
    100 H100      -57.3336  -27.3795   13.0060 H         1 UNK         0.3450 
    101 H101      -54.7435  -28.1003   13.1236 H         1 UNK         0.2987 
    102 H102      -53.4951  -27.0272   10.6223 H         1 UNK         0.0766 
    103 H103      -54.4392  -24.9211    9.6628 H         1 UNK         0.0798 
    104 H104      -56.0682  -25.4676   10.0607 H         1 UNK         0.0798 
    105 H105      -55.1044  -26.3417    8.8773 H         1 UNK         0.0798 
    106 H106      -53.2886  -25.6185   12.3209 H         1 UNK         0.3198 
    107 H107      -54.1200  -23.7492   13.7963 H         1 UNK         0.0843 
    108 H108      -56.2649  -24.9784   15.6118 H         1 UNK         0.0831 
    109 H109      -56.4486  -23.5246   14.6414 H         1 UNK         0.0831 
    110 H110      -55.3096  -23.5419   15.9778 H         1 UNK         0.0831 
    111 H111      -52.7267  -24.8669   15.1351 H         1 UNK         0.3133 
    112 H112      -52.8644  -26.9291   17.4025 H         1 UNK         0.0566 
    113 H113      -51.5022  -28.9468   16.9007 H         1 UNK         0.0814 
    114 H114      -53.1832  -29.1835   16.4576 H         1 UNK         0.0814 
    115 H115      -51.9854  -28.8607   15.2099 H         1 UNK         0.0814 
    116 H116      -50.7997  -26.6359   15.2578 H         1 UNK         0.3091 
    117 H117      -49.1493  -24.0862   17.1792 H         1 UNK         0.0702 
    118 H118      -47.2239  -25.5755   16.7336 H         1 UNK         0.0785 
    119 H119      -48.3057  -26.9058   16.3266 H         1 UNK         0.0785 
    120 H120      -48.2510  -26.2829   17.9708 H         1 UNK         0.0785 
    121 H121      -48.4929  -25.0659   14.6304 H         1 UNK         0.2998 
    122 H122      -50.3817  -22.6710   12.7329 H         1 UNK         0.0697 
    123 H123      -47.4105  -23.0786   13.3577 H         1 UNK         0.0825 
    124 H124      -48.3145  -21.5999   13.6502 H         1 UNK         0.0825 
    125 H125      -48.0939  -22.1676   12.0065 H         1 UNK         0.0825 
    126 H126      -48.5722  -24.8622   12.0898 H         1 UNK         0.3029 
    127 H127      -51.2060  -27.1625   11.3134 H         1 UNK         0.0897 
    128 H128      -49.1922  -25.6653    9.5562 H         1 UNK         0.0792 
    129 H129      -49.8871  -27.2391    9.1869 H         1 UNK         0.0792 
    130 H130      -50.9186  -25.8130    9.2530 H         1 UNK         0.0792 
    131 H131      -48.3941  -27.4482   11.1803 H         1 UNK         0.3086 
    132 H132      -47.8883  -28.5816   14.5127 H         1 UNK         0.0583 
    133 H133      -47.2048  -30.6272   13.4801 H         1 UNK         0.1020 
    134 H134      -48.9132  -30.4996   13.2030 H         1 UNK         0.1020 
    135 H135      -48.4334  -32.0037    9.7265 H         1 UNK         0.0694 
    136 H136      -48.5931  -32.4409   11.4062 H         1 UNK         0.0694 
    137 H137      -46.0406  -28.4732   12.4483 H         1 UNK         0.2989 
    138 H138      -44.2851  -26.0893   13.5048 H         1 UNK         0.1055 
    139 H139      -44.1057  -28.1241   12.1154 H         1 UNK         0.0806 
    140 H140      -43.3800  -26.7821   11.2619 H         1 UNK         0.0806 
    141 H141      -44.9750  -27.3494   10.7887 H         1 UNK         0.0806 
    142 H142      -44.3803  -24.1550   12.4342 H         1 UNK         0.3061 
    143 H143      -45.6986  -22.3198   11.3777 H         1 UNK         0.0734 
    144 H144      -44.0492  -23.5471    9.0798 H         1 UNK         0.0832 
    145 H145      -44.0335  -21.8448    9.5336 H         1 UNK         0.0832 
    146 H146      -43.4070  -23.0499   10.6391 H         1 UNK         0.0832 
    147 H147      -47.0717  -23.5258    9.1625 H         1 UNK         0.3156 
    148 H148      -49.0285  -21.3830    8.4764 H         1 UNK         0.0589 
    149 H149      -46.8912  -20.0926    6.6977 H         1 UNK         0.0808 
    150 H150      -48.6190  -20.1205    6.3448 H         1 UNK         0.0808 
    151 H151      -48.0243  -19.2523    7.7479 H         1 UNK         0.0808 
    152 H152      -47.1075  -22.6564    6.5655 H         1 UNK         0.3098 
    153 H153      -48.1746  -24.4595    5.2514 H         1 UNK         0.0720 
    154 H154      -46.8841  -26.4052    6.2170 H         1 UNK         0.0791 
    155 H155      -47.3669  -25.9342    7.8428 H         1 UNK         0.0791 
    156 H156      -46.3058  -24.8989    6.8983 H         1 UNK         0.0791 
    157 H157      -50.2299  -25.5629    6.9062 H         1 UNK         0.3028 
@<TRIPOS>BOND
     1    1    2 1    
     2    1   82 1    
     3    1   83 1    
     4    1   84 1    
     5    2    3 2    
     6    2    4 am   BACKBONE|DICT|INTERRES
     7    4    5 1    
     8    4   85 1    
     9    5    6 1    
    10    5   80 1    
    11    5   86 1    
    12    6    7 1    
    13    6   87 1    
    14    6   88 1    
    15    7    8 1    
    16    8    9 1    
    17    8   89 1    
    18    8   90 1    
    19    9   10 ar   
    20    9   14 ar   
    21   10   11 ar   
    22   10   91 1    
    23   11   12 ar   
    24   11   58 1    
    25   12   13 ar   
    26   12   92 1    
    27   13   14 ar   
    28   13   15 1    
    29   14   93 1    
    30   15   16 1    
    31   15   94 1    
    32   15   95 1    
    33   16   17 1    
    34   17   18 1    
    35   17   96 1    
    36   17   97 1    
    37   18   19 1    
    38   18   22 1    
    39   18   98 1    
    40   19   20 am   BACKBONE|DICT|INTERRES
    41   19   21 2    
    42   20   99 1    
    43   20  100 1    
    44   22   23 am   BACKBONE|DICT|INTERRES
    45   22  101 1    
    46   23   24 2    
    47   23   25 1    
    48   25   26 1    
    49   25   27 1    
    50   25  102 1    
    51   26  103 1    
    52   26  104 1    
    53   26  105 1    
    54   27   28 am   BACKBONE|DICT|INTERRES
    55   27  106 1    
    56   28   29 2    
    57   28   30 1    
    58   30   31 1    
    59   30   32 1    
    60   30  107 1    
    61   31  108 1    
    62   31  109 1    
    63   31  110 1    
    64   32   33 am   BACKBONE|DICT|INTERRES
    65   32  111 1    
    66   33   34 2    
    67   33   35 1    
    68   35   36 1    
    69   35   37 1    
    70   35  112 1    
    71   36  113 1    
    72   36  114 1    
    73   36  115 1    
    74   37   38 am   BACKBONE|DICT|INTERRES
    75   37  116 1    
    76   38   39 2    
    77   38   40 1    
    78   40   41 1    
    79   40   42 1    
    80   40  117 1    
    81   41  118 1    
    82   41  119 1    
    83   41  120 1    
    84   42   43 am   BACKBONE|DICT|INTERRES
    85   42  121 1    
    86   43   44 2    
    87   43   45 1    
    88   45   46 1    
    89   45   47 1    
    90   45  122 1    
    91   46  123 1    
    92   46  124 1    
    93   46  125 1    
    94   47   48 am   BACKBONE|DICT|INTERRES
    95   47  126 1    
    96   48   49 2    
    97   48   50 1    
    98   50   51 1    
    99   50   52 1    
   100   50  127 1    
   101   51  128 1    
   102   51  129 1    
   103   51  130 1    
   104   52   53 am   BACKBONE|DICT|INTERRES
   105   52  131 1    
   106   53   54 2    
   107   53   55 1    
   108   55   56 1    
   109   55   59 1    
   110   55  132 1    
   111   56   57 1    
   112   56  133 1    
   113   56  134 1    
   114   57   58 1    
   115   58  135 1    
   116   58  136 1    
   117   59   60 am   BACKBONE|DICT|INTERRES
   118   59  137 1    
   119   60   61 2    
   120   60   62 1    
   121   62   63 1    
   122   62   64 1    
   123   62  138 1    
   124   63  139 1    
   125   63  140 1    
   126   63  141 1    
   127   64   65 am   BACKBONE|DICT|INTERRES
   128   64  142 1    
   129   65   66 2    
   130   65   67 1    
   131   67   68 1    
   132   67   69 1    
   133   67  143 1    
   134   68  144 1    
   135   68  145 1    
   136   68  146 1    
   137   69   70 am   BACKBONE|DICT|INTERRES
   138   69  147 1    
   139   70   71 2    
   140   70   72 1    
   141   72   73 1    
   142   72   74 1    
   143   72  148 1    
   144   73  149 1    
   145   73  150 1    
   146   73  151 1    
   147   74   75 am   BACKBONE|DICT|INTERRES
   148   74  152 1    
   149   75   76 2    
   150   75   77 1    
   151   77   78 1    
   152   77   79 1    
   153   77  153 1    
   154   78  154 1    
   155   78  155 1    
   156   78  156 1    
   157   79   80 am   BACKBONE|DICT|INTERRES
   158   79  157 1    
   159   80   81 2    
@<TRIPOS>SUBSTRUCTURE
     1 UNK         1 GROUP             0       ****    0 ROOT    
