@<TRIPOS>MOLECULE
3R207
157   159    1
SMALL
USER_CHARGES


@<TRIPOS>ATOM
      1 CA        -44.2112  -27.0983    6.2477 C.3       0 UNK        -0.1975 
      2 C         -45.1917  -28.0555    5.5865 C.2       0 UNK         0.4852 
      3 O         -44.8158  -28.7808    4.6657 O.2       0 UNK        -0.5216 
      4 N         -46.4519  -28.0445    6.0345 N.am      1 UNK        -0.4461 
      5 CA        -47.5515  -28.8769    5.5305 C.3       1 UNK         0.0864 
      6 C6        -48.3141  -29.5172    6.7207 C.3       14 UNK        -0.0898 
      7 S7        -49.1589  -31.0895    6.3391 S.3       14 UNK        -0.2598 
      8 C8        -50.9226  -30.6279    6.2552 C.3       14 UNK         0.0286 
      9 C9        -51.4400  -29.9536    7.5207 C.ar      14 UNK        -0.0844 
     10 C10       -51.7545  -30.7114    8.6546 C.ar      14 UNK        -0.0881 
     11 C11       -52.2954  -30.0994    9.7918 C.ar      14 UNK        -0.0643 
     12 C12       -52.4963  -28.7160    9.7880 C.ar      14 UNK        -0.0930 
     13 C13       -52.1720  -27.9465    8.6717 C.ar      14 UNK        -0.0827 
     14 C14       -51.6511  -28.5708    7.5378 C.ar      14 UNK        -0.1249 
     15 C15       -52.3784  -26.4400    8.7038 C.3       14 UNK         0.0141 
     16 S16       -54.0031  -25.9297    8.0478 S.3       14 UNK        -0.2313 
     17 C17       -55.1990  -26.6540    9.2278 C.3       14 UNK        -0.0915 
     18 CA        -55.2795  -25.9125   10.5922 C.3       13 UNK         0.0968 
     19 C         -56.1401  -24.6157   10.5107 C.2       13 UNK         0.5732 
     20 N         -57.3234  -24.5696   11.1119 N.am      13 UNK        -0.7310 
     21 O         -55.7218  -23.6301    9.9091 O.2       13 UNK        -0.5035 
     22 N         -55.6587  -26.8360   11.6766 N.am      13 UNK        -0.4233 
     23 C         -55.4430  -26.6017   12.9784 C.2       13 UNK         0.4989 
     24 O         -54.8902  -25.5869   13.4033 O.2       13 UNK        -0.4996 
     25 CA        -55.9065  -27.6681   13.9841 C.3       12 UNK         0.0216 
     26 CB        -56.0119  -29.0929   13.3889 C.3       12 UNK        -0.1964 
     27 N         -55.0047  -27.6355   15.1375 N.am      12 UNK        -0.4276 
     28 C         -55.2474  -28.1729   16.3400 C.2       12 UNK         0.5020 
     29 O         -56.2759  -28.7918   16.6165 O.2       12 UNK        -0.5489 
     30 CA        -54.1760  -27.9969   17.4277 C.3       11 UNK         0.0294 
     31 CB        -53.2128  -29.1958   17.4317 C.3       11 UNK        -0.2019 
     32 N         -53.3983  -26.7713   17.2496 N.am      11 UNK        -0.4493 
     33 C         -53.5409  -25.6507   17.9672 C.2       11 UNK         0.4932 
     34 O         -54.3831  -25.5072   18.8554 O.2       11 UNK        -0.5029 
     35 CA        -52.5647  -24.5040   17.6323 C.3       10 UNK         0.0280 
     36 CB        -52.4990  -23.4214   18.7301 C.3       10 UNK        -0.1976 
     37 N         -51.2204  -24.9838   17.2852 N.am      10 UNK        -0.4242 
     38 C         -50.3682  -25.6843   18.0522 C.2       10 UNK         0.5072 
     39 O         -50.5803  -25.9751   19.2300 O.2       10 UNK        -0.5224 
     40 CA        -49.0627  -26.1763   17.3919 C.3       9 UNK         0.0343 
     41 CB        -49.1418  -27.6901   17.1357 C.3       9 UNK        -0.2003 
     42 N         -48.7488  -25.4969   16.1312 N.am      9 UNK        -0.4272 
     43 C         -48.3226  -24.2289   16.0343 C.2       9 UNK         0.4988 
     44 O         -48.0372  -23.5237   17.0022 O.2       9 UNK        -0.5108 
     45 CA        -48.2596  -23.6316   14.6192 C.3       8 UNK         0.0248 
     46 CB        -46.9060  -23.9185   13.9506 C.3       8 UNK        -0.2001 
     47 N         -49.3527  -24.1190   13.7723 N.am      8 UNK        -0.4140 
     48 C         -50.6357  -23.7550   13.9190 C.2       8 UNK         0.5028 
     49 O         -51.0214  -22.9312   14.7472 O.2       8 UNK        -0.5428 
     50 CA        -51.6687  -24.4520   13.0230 C.3       7 UNK         0.0264 
     51 CB        -51.8038  -23.6976   11.6898 C.3       7 UNK        -0.1988 
     52 N         -51.3388  -25.8644   12.7958 N.am      7 UNK        -0.4454 
     53 C         -51.5045  -26.8242   13.7251 C.2       7 UNK         0.5027 
     54 O         -52.0564  -26.6306   14.8086 O.2       7 UNK        -0.5083 
     55 CA        -50.9512  -28.2375   13.4342 C.3       6 UNK         0.0844 
     56 C56       -52.1029  -29.2471   13.1884 C.3       14 UNK        -0.0967 
     57 S57       -51.5853  -30.8182   12.4064 S.3       14 UNK        -0.2604 
     58 C58       -52.7262  -30.9404   10.9888 C.3       14 UNK         0.0134 
     59 N         -49.9127  -28.2435   12.4022 N.am      6 UNK        -0.4116 
     60 C         -48.7079  -27.6783   12.5499 C.2       5 UNK         0.5034 
     61 O         -48.3739  -27.0478   13.5558 O.2       5 UNK        -0.5045 
     62 CA        -47.7226  -27.7792   11.3733 C.3       5 UNK         0.0224 
     63 CB        -48.1755  -28.7316   10.2456 C.3       5 UNK        -0.1978 
     64 N         -47.4082  -26.4551   10.8243 N.am      5 UNK        -0.4737 
     65 C         -48.2812  -25.5480   10.3618 C.2       4 UNK         0.5027 
     66 O         -49.5021  -25.7170   10.3536 O.2       4 UNK        -0.5211 
     67 CA        -47.7135  -24.2022    9.8699 C.3       4 UNK         0.0297 
     68 CB        -46.1716  -24.0875    9.9475 C.3       4 UNK        -0.1993 
     69 N         -48.1910  -23.8655    8.5240 N.am      4 UNK        -0.4486 
     70 C         -47.9489  -24.5442    7.3942 C.2       3 UNK         0.4961 
     71 O         -47.2899  -25.5895    7.3355 O.2       3 UNK        -0.5105 
     72 CA        -48.5105  -23.9284    6.1021 C.3       3 UNK         0.0299 
     73 CB        -47.8697  -22.5610    5.7948 C.3       3 UNK        -0.1972 
     74 N         -48.2297  -24.8586    5.0183 N.am      3 UNK        -0.4305 
     75 C         -48.8636  -24.9739    3.8466 C.2       2 UNK         0.5006 
     76 O         -49.7492  -24.2085    3.4641 O.2       2 UNK        -0.5106 
     77 CA        -48.4404  -26.1592    2.9512 C.3       2 UNK         0.0296 
     78 CB        -47.4812  -25.6846    1.8475 C.3       2 UNK        -0.2002 
     79 N         -47.8055  -27.2475    3.7072 N.am      2 UNK        -0.4032 
     80 C         -48.4409  -28.0123    4.6093 C.2       1 UNK         0.5000 
     81 O         -49.6613  -27.9783    4.7621 O.2       1 UNK        -0.5238 
     82 H82       -44.6760  -26.5321    7.0549 H         1 UNK         0.0889 
     83 H83       -43.8253  -26.3900    5.5153 H         1 UNK         0.0889 
     84 H84       -43.3701  -27.6517    6.6639 H         1 UNK         0.0889 
     85 H85       -46.7155  -27.3596    6.7399 H         1 UNK         0.3028 
     86 H86       -47.1486  -29.6831    4.9139 H         1 UNK         0.0864 
     87 H87       -48.9815  -28.8025    7.2013 H         1 UNK         0.0720 
     88 H88       -47.5902  -29.7900    7.4881 H         1 UNK         0.0720 
     89 H89       -51.5053  -31.5316    6.0716 H         1 UNK         0.0814 
     90 H90       -51.0916  -29.9927    5.3859 H         1 UNK         0.0814 
     91 H91       -51.6035  -31.7822    8.6381 H         1 UNK         0.1469 
     92 H92       -52.9362  -28.2193   10.6356 H         1 UNK         0.1381 
     93 H93       -51.4139  -27.9776    6.6655 H         1 UNK         0.1206 
     94 H94       -51.5958  -25.9551    8.1178 H         1 UNK         0.0813 
     95 H95       -52.2549  -26.0676    9.7201 H         1 UNK         0.0813 
     96 H96       -56.1790  -26.6771    8.7478 H         1 UNK         0.0638 
     97 H97       -54.9373  -27.7017    9.3680 H         1 UNK         0.0638 
     98 H98       -54.2728  -25.5791   10.8396 H         1 UNK         0.0568 
     99 H99       -57.8678  -23.7231   11.0605 H         1 UNK         0.3450 
    100 H100      -57.6786  -25.3678   11.6120 H         1 UNK         0.3450 
    101 H101      -56.1419  -27.6779   11.4015 H         1 UNK         0.2987 
    102 H102      -56.8976  -27.3614   14.3244 H         1 UNK         0.0766 
    103 H103      -56.3277  -29.8174   14.1392 H         1 UNK         0.0798 
    104 H104      -55.0642  -29.4404   12.9829 H         1 UNK         0.0798 
    105 H105      -56.7535  -29.1403   12.5910 H         1 UNK         0.0798 
    106 H106      -54.1730  -27.0680   15.0074 H         1 UNK         0.3198 
    107 H107      -54.6903  -27.9770   18.3912 H         1 UNK         0.0843 
    108 H108      -52.6357  -29.2571   16.5093 H         1 UNK         0.0831 
    109 H109      -53.7563  -30.1352   17.5427 H         1 UNK         0.0831 
    110 H110      -52.5075  -29.1299   18.2604 H         1 UNK         0.0831 
    111 H111      -52.7206  -26.7632   16.4894 H         1 UNK         0.3133 
    112 H112      -52.9550  -24.0322   16.7293 H         1 UNK         0.0566 
    113 H113      -51.8127  -22.6205   18.4546 H         1 UNK         0.0814 
    114 H114      -53.4775  -22.9673   18.8905 H         1 UNK         0.0814 
    115 H115      -52.1709  -23.8316   19.6856 H         1 UNK         0.0814 
    116 H116      -50.9424  -24.8075   16.3299 H         1 UNK         0.3091 
    117 H117      -48.2461  -25.9888   18.0924 H         1 UNK         0.0702 
    118 H118      -48.2460  -28.0610   16.6370 H         1 UNK         0.0785 
    119 H119      -50.0038  -27.9477   16.5212 H         1 UNK         0.0785 
    120 H120      -49.2416  -28.2373   18.0741 H         1 UNK         0.0785 
    121 H121      -48.8680  -26.0303   15.2762 H         1 UNK         0.2998 
    122 H122      -48.3616  -22.5483   14.7155 H         1 UNK         0.0697 
    123 H123      -46.7468  -24.9837   13.7826 H         1 UNK         0.0825 
    124 H124      -46.0832  -23.5617   14.5716 H         1 UNK         0.0825 
    125 H125      -46.8280  -23.4081   12.9915 H         1 UNK         0.0825 
    126 H126      -49.1273  -24.8508   13.1132 H         1 UNK         0.3029 
    127 H127      -52.6301  -24.3978   13.5365 H         1 UNK         0.0897 
    128 H128      -50.8672  -23.6711   11.1340 H         1 UNK         0.0792 
    129 H129      -52.1012  -22.6625   11.8634 H         1 UNK         0.0792 
    130 H130      -52.5631  -24.1390   11.0489 H         1 UNK         0.0792 
    131 H131      -50.8545  -26.0842   11.9306 H         1 UNK         0.3086 
    132 H132      -50.4539  -28.5639   14.3489 H         1 UNK         0.0583 
    133 H133      -52.5665  -29.5014   14.1425 H         1 UNK         0.1020 
    134 H134      -52.9069  -28.7946   12.6165 H         1 UNK         0.1020 
    135 H135      -52.7906  -31.9902   10.6987 H         1 UNK         0.0694 
    136 H136      -53.7338  -30.6587   11.2966 H         1 UNK         0.0694 
    137 H137      -50.1261  -28.7396   11.5485 H         1 UNK         0.2989 
    138 H138      -46.7972  -28.1772   11.7929 H         1 UNK         0.1055 
    139 H139      -48.3787  -29.7351   10.6226 H         1 UNK         0.0806 
    140 H140      -47.3849  -28.8262    9.5035 H         1 UNK         0.0806 
    141 H141      -49.0707  -28.3779    9.7314 H         1 UNK         0.0806 
    142 H142      -46.4288  -26.2077   10.8163 H         1 UNK         0.3061 
    143 H143      -48.1292  -23.4463   10.5379 H         1 UNK         0.0734 
    144 H144      -45.8395  -23.1002    9.6265 H         1 UNK         0.0832 
    145 H145      -45.8085  -24.2239   10.9664 H         1 UNK         0.0832 
    146 H146      -45.6688  -24.8209    9.3160 H         1 UNK         0.0832 
    147 H147      -48.7765  -23.0441    8.4664 H         1 UNK         0.3156 
    148 H148      -49.5915  -23.8206    6.2125 H         1 UNK         0.0589 
    149 H149      -46.7846  -22.6365    5.7118 H         1 UNK         0.0808 
    150 H150      -48.2466  -22.1465    4.8597 H         1 UNK         0.0808 
    151 H151      -48.0882  -21.8329    6.5765 H         1 UNK         0.0808 
    152 H152      -47.5477  -25.5603    5.2751 H         1 UNK         0.3098 
    153 H153      -49.3427  -26.5531    2.4785 H         1 UNK         0.0720 
    154 H154      -47.2258  -26.4969    1.1667 H         1 UNK         0.0791 
    155 H155      -46.5535  -25.2868    2.2610 H         1 UNK         0.0791 
    156 H156      -47.9365  -24.8939    1.2493 H         1 UNK         0.0791 
    157 H157      -46.8033  -27.3445    3.6196 H         1 UNK         0.3028 
@<TRIPOS>BOND
     1    1    2 1    
     2    1   82 1    
     3    1   83 1    
     4    1   84 1    
     5    2    3 2    
     6    2    4 am   BACKBONE|DICT|INTERRES
     7    4    5 1    
     8    4   85 1    
     9    5    6 1    
    10    5   80 1    
    11    5   86 1    
    12    6    7 1    
    13    6   87 1    
    14    6   88 1    
    15    7    8 1    
    16    8    9 1    
    17    8   89 1    
    18    8   90 1    
    19    9   10 ar   
    20    9   14 ar   
    21   10   11 ar   
    22   10   91 1    
    23   11   12 ar   
    24   11   58 1    
    25   12   13 ar   
    26   12   92 1    
    27   13   14 ar   
    28   13   15 1    
    29   14   93 1    
    30   15   16 1    
    31   15   94 1    
    32   15   95 1    
    33   16   17 1    
    34   17   18 1    
    35   17   96 1    
    36   17   97 1    
    37   18   19 1    
    38   18   22 1    
    39   18   98 1    
    40   19   20 am   BACKBONE|DICT|INTERRES
    41   19   21 2    
    42   20   99 1    
    43   20  100 1    
    44   22   23 am   BACKBONE|DICT|INTERRES
    45   22  101 1    
    46   23   24 2    
    47   23   25 1    
    48   25   26 1    
    49   25   27 1    
    50   25  102 1    
    51   26  103 1    
    52   26  104 1    
    53   26  105 1    
    54   27   28 am   BACKBONE|DICT|INTERRES
    55   27  106 1    
    56   28   29 2    
    57   28   30 1    
    58   30   31 1    
    59   30   32 1    
    60   30  107 1    
    61   31  108 1    
    62   31  109 1    
    63   31  110 1    
    64   32   33 am   BACKBONE|DICT|INTERRES
    65   32  111 1    
    66   33   34 2    
    67   33   35 1    
    68   35   36 1    
    69   35   37 1    
    70   35  112 1    
    71   36  113 1    
    72   36  114 1    
    73   36  115 1    
    74   37   38 am   BACKBONE|DICT|INTERRES
    75   37  116 1    
    76   38   39 2    
    77   38   40 1    
    78   40   41 1    
    79   40   42 1    
    80   40  117 1    
    81   41  118 1    
    82   41  119 1    
    83   41  120 1    
    84   42   43 am   BACKBONE|DICT|INTERRES
    85   42  121 1    
    86   43   44 2    
    87   43   45 1    
    88   45   46 1    
    89   45   47 1    
    90   45  122 1    
    91   46  123 1    
    92   46  124 1    
    93   46  125 1    
    94   47   48 am   BACKBONE|DICT|INTERRES
    95   47  126 1    
    96   48   49 2    
    97   48   50 1    
    98   50   51 1    
    99   50   52 1    
   100   50  127 1    
   101   51  128 1    
   102   51  129 1    
   103   51  130 1    
   104   52   53 am   BACKBONE|DICT|INTERRES
   105   52  131 1    
   106   53   54 2    
   107   53   55 1    
   108   55   56 1    
   109   55   59 1    
   110   55  132 1    
   111   56   57 1    
   112   56  133 1    
   113   56  134 1    
   114   57   58 1    
   115   58  135 1    
   116   58  136 1    
   117   59   60 am   BACKBONE|DICT|INTERRES
   118   59  137 1    
   119   60   61 2    
   120   60   62 1    
   121   62   63 1    
   122   62   64 1    
   123   62  138 1    
   124   63  139 1    
   125   63  140 1    
   126   63  141 1    
   127   64   65 am   BACKBONE|DICT|INTERRES
   128   64  142 1    
   129   65   66 2    
   130   65   67 1    
   131   67   68 1    
   132   67   69 1    
   133   67  143 1    
   134   68  144 1    
   135   68  145 1    
   136   68  146 1    
   137   69   70 am   BACKBONE|DICT|INTERRES
   138   69  147 1    
   139   70   71 2    
   140   70   72 1    
   141   72   73 1    
   142   72   74 1    
   143   72  148 1    
   144   73  149 1    
   145   73  150 1    
   146   73  151 1    
   147   74   75 am   BACKBONE|DICT|INTERRES
   148   74  152 1    
   149   75   76 2    
   150   75   77 1    
   151   77   78 1    
   152   77   79 1    
   153   77  153 1    
   154   78  154 1    
   155   78  155 1    
   156   78  156 1    
   157   79   80 am   BACKBONE|DICT|INTERRES
   158   79  157 1    
   159   80   81 2    
@<TRIPOS>SUBSTRUCTURE
     1 UNK         1 GROUP             0       ****    0 ROOT    
