@<TRIPOS>MOLECULE
3R207
157   159    1
SMALL
USER_CHARGES


@<TRIPOS>ATOM
      1 CA        -45.9960  -27.1494    4.2819 C.3       0 UNK        -0.1975 
      2 C         -46.1501  -27.1894    5.7942 C.2       0 UNK         0.4852 
      3 O         -45.9092  -26.1792    6.4579 O.2       0 UNK        -0.5216 
      4 N         -46.5803  -28.3361    6.3400 N.am      1 UNK        -0.4461 
      5 CA        -46.7314  -28.5867    7.7796 C.3       1 UNK         0.0864 
      6 C6        -47.4539  -29.9276    8.0522 C.3       14 UNK        -0.0898 
      7 S7        -49.2247  -29.8481    7.6174 S.3       14 UNK        -0.2598 
      8 C8        -49.9286  -29.5503    9.2750 C.3       14 UNK         0.0286 
      9 C9        -51.4528  -29.4810    9.3512 C.ar      14 UNK        -0.0844 
     10 C10       -52.2564  -29.1032    8.2658 C.ar      14 UNK        -0.0881 
     11 C11       -53.6417  -28.9611    8.4208 C.ar      14 UNK        -0.0643 
     12 C12       -54.2274  -29.2400    9.6581 C.ar      14 UNK        -0.0930 
     13 C13       -53.4404  -29.6297   10.7428 C.ar      14 UNK        -0.0827 
     14 C14       -52.0584  -29.7434   10.5836 C.ar      14 UNK        -0.1249 
     15 C15       -54.0753  -29.9033   12.0964 C.3       14 UNK         0.0141 
     16 S16       -53.9477  -28.4545   13.1844 S.3       14 UNK        -0.2313 
     17 C17       -55.1555  -27.3218   12.4161 C.3       14 UNK        -0.0915 
     18 CA        -55.4444  -26.0761   13.2924 C.3       13 UNK         0.0968 
     19 C         -56.4684  -25.1325   12.6071 C.2       13 UNK         0.5732 
     20 N         -56.0267  -24.3662   11.6203 N.am      13 UNK        -0.7310 
     21 O         -57.6556  -25.1139   12.9293 O.2       13 UNK        -0.5035 
     22 N         -55.8304  -26.4741   14.6502 N.am      13 UNK        -0.4233 
     23 C         -55.8863  -25.6892   15.7275 C.2       13 UNK         0.4989 
     24 O         -55.6779  -24.4762   15.7043 O.2       13 UNK        -0.4996 
     25 CA        -56.1579  -26.3781   17.0809 C.3       12 UNK         0.0216 
     26 CB        -57.6647  -26.3910   17.4060 C.3       12 UNK        -0.1964 
     27 N         -55.5533  -27.7179   17.2226 N.am      12 UNK        -0.4276 
     28 C         -55.8695  -28.8552   16.5839 C.2       12 UNK         0.5020 
     29 O         -56.7626  -28.9427   15.7401 O.2       12 UNK        -0.5489 
     30 CA        -54.9600  -30.0581   16.8621 C.3       11 UNK         0.0294 
     31 CB        -55.4764  -31.3684   16.2360 C.3       11 UNK        -0.2019 
     32 N         -53.6397  -29.7444   16.3264 N.am      11 UNK        -0.4493 
     33 C         -52.4692  -30.1344   16.8426 C.2       11 UNK         0.4932 
     34 O         -52.3604  -30.8682   17.8253 O.2       11 UNK        -0.5029 
     35 CA        -51.2010  -29.5976   16.1524 C.3       10 UNK         0.0280 
     36 CB        -50.7433  -30.5604   15.0449 C.3       10 UNK        -0.1976 
     37 N         -51.3778  -28.2603   15.5791 N.am      10 UNK        -0.4242 
     38 C         -51.6275  -27.1400   16.2668 C.2       10 UNK         0.5072 
     39 O         -51.6705  -27.0933   17.4977 O.2       10 UNK        -0.5224 
     40 CA        -51.8992  -25.8700   15.4351 C.3       9 UNK         0.0343 
     41 CB        -52.3187  -24.6739   16.3099 C.3       9 UNK        -0.2003 
     42 N         -50.7788  -25.4506   14.5898 N.am      9 UNK        -0.4272 
     43 C         -50.3075  -26.0775   13.5046 C.2       9 UNK         0.4988 
     44 O         -50.7177  -27.1667   13.1012 O.2       9 UNK        -0.5108 
     45 CA        -49.2278  -25.3249   12.7100 C.3       8 UNK         0.0248 
     46 CB        -48.2425  -26.2861   12.0215 C.3       8 UNK        -0.2001 
     47 N         -49.8673  -24.4788   11.7025 N.am      8 UNK        -0.4140 
     48 C         -50.5196  -23.3349   11.9695 C.2       8 UNK         0.5028 
     49 O         -50.5253  -22.8015   13.0803 O.2       8 UNK        -0.5428 
     50 CA        -51.3102  -22.6683   10.8261 C.3       7 UNK         0.0264 
     51 CB        -50.5166  -21.4892   10.2462 C.3       7 UNK        -0.1988 
     52 N         -51.6480  -23.5999    9.7488 N.am      7 UNK        -0.4454 
     53 C         -52.5466  -24.5914    9.8588 C.2       7 UNK         0.5027 
     54 O         -53.3186  -24.6941   10.8130 O.2       7 UNK        -0.5083 
     55 CA        -52.5835  -25.6635    8.7471 C.3       6 UNK         0.0844 
     56 C56       -53.9897  -25.7801    8.0951 C.3       14 UNK        -0.0967 
     57 S57       -54.0159  -26.8580    6.6111 S.3       14 UNK        -0.2604 
     58 C58       -54.5158  -28.4845    7.2674 C.3       14 UNK         0.0134 
     59 N         -51.5220  -25.5196    7.7463 N.am      6 UNK        -0.4116 
     60 C         -50.2147  -25.7212    7.9419 C.2       5 UNK         0.5034 
     61 O         -49.7130  -25.9527    9.0421 O.2       5 UNK        -0.5045 
     62 CA        -49.3069  -25.6346    6.7032 C.3       5 UNK         0.0224 
     63 CB        -50.0588  -25.4733    5.3617 C.3       5 UNK        -0.1978 
     64 N         -48.2807  -24.5945    6.8373 N.am      5 UNK        -0.4737 
     65 C         -48.4789  -23.2915    7.0886 C.2       4 UNK         0.5027 
     66 O         -49.5934  -22.7973    7.2735 O.2       4 UNK        -0.5211 
     67 CA        -47.2246  -22.3880    7.0997 C.3       4 UNK         0.0297 
     68 CB        -47.4492  -21.0427    7.8230 C.3       4 UNK        -0.1993 
     69 N         -46.0027  -23.0358    7.5982 N.am      4 UNK        -0.4486 
     70 C         -45.8239  -23.5995    8.8004 C.2       3 UNK         0.4961 
     71 O         -46.6985  -23.6980    9.6639 O.2       3 UNK        -0.5105 
     72 CA        -44.4212  -24.1367    9.1022 C.3       3 UNK         0.0299 
     73 CB        -43.6322  -23.1486    9.9822 C.3       3 UNK        -0.1972 
     74 N         -44.5974  -25.4158    9.7745 N.am      3 UNK        -0.4305 
     75 C         -43.6668  -26.3535    9.9876 C.2       2 UNK         0.5006 
     76 O         -42.4673  -26.2123    9.7477 O.2       2 UNK        -0.5106 
     77 CA        -44.1883  -27.7042   10.5106 C.3       2 UNK         0.0296 
     78 CB        -44.4893  -27.6363   12.0173 C.3       2 UNK        -0.2002 
     79 N         -45.3906  -28.1097    9.7749 N.am      2 UNK        -0.4032 
     80 C         -45.3693  -28.5335    8.5025 C.2       1 UNK         0.5000 
     81 O         -44.3395  -28.8647    7.9068 O.2       1 UNK        -0.5238 
     82 H82       -44.9643  -26.9194    4.0176 H         1 UNK         0.0889 
     83 H83       -46.6371  -26.3752    3.8612 H         1 UNK         0.0889 
     84 H84       -46.2619  -28.0995    3.8190 H         1 UNK         0.0889 
     85 H85       -46.7587  -29.1307    5.7431 H         1 UNK         0.3028 
     86 H86       -47.3390  -27.7759    8.1885 H         1 UNK         0.0864 
     87 H87       -46.9906  -30.7361    7.4835 H         1 UNK         0.0720 
     88 H88       -47.3642  -30.2189    9.1007 H         1 UNK         0.0720 
     89 H89       -49.5767  -30.3409    9.9398 H         1 UNK         0.0814 
     90 H90       -49.5268  -28.6146    9.6645 H         1 UNK         0.0814 
     91 H91       -51.8085  -28.8699    7.3104 H         1 UNK         0.1469 
     92 H92       -55.2959  -29.1334    9.7859 H         1 UNK         0.1381 
     93 H93       -51.4493  -30.0136   11.4359 H         1 UNK         0.1206 
     94 H94       -55.1216  -30.1925   11.9869 H         1 UNK         0.0813 
     95 H95       -53.5742  -30.7471   12.5727 H         1 UNK         0.0813 
     96 H96       -54.7623  -27.0175   11.4448 H         1 UNK         0.0638 
     97 H97       -56.0771  -27.8740   12.2233 H         1 UNK         0.0638 
     98 H98       -54.5153  -25.5108   13.3838 H         1 UNK         0.0568 
     99 H99       -55.0495  -24.4076   11.3381 H         1 UNK         0.3450 
    100 H100      -56.6665  -23.7500   11.1460 H         1 UNK         0.3450 
    101 H101      -56.0960  -27.4467   14.7722 H         1 UNK         0.2987 
    102 H102      -55.6705  -25.7615   17.8380 H         1 UNK         0.0766 
    103 H103      -57.8555  -26.8226   18.3885 H         1 UNK         0.0798 
    104 H104      -58.0675  -25.3773   17.4133 H         1 UNK         0.0798 
    105 H105      -58.2380  -26.9583   16.6723 H         1 UNK         0.0798 
    106 H106      -54.7611  -27.7559   17.8511 H         1 UNK         0.3198 
    107 H107      -54.9058  -30.1850   17.9457 H         1 UNK         0.0843 
    108 H108      -56.4781  -31.6048   16.5967 H         1 UNK         0.0831 
    109 H109      -54.8321  -32.2099   16.4910 H         1 UNK         0.0831 
    110 H110      -55.5262  -31.3029   15.1482 H         1 UNK         0.0831 
    111 H111      -53.6271  -29.1495   15.5069 H         1 UNK         0.3133 
    112 H112      -50.4124  -29.5367   16.9051 H         1 UNK         0.0566 
    113 H113      -49.8042  -30.2331   14.5981 H         1 UNK         0.0814 
    114 H114      -51.4833  -30.6387   14.2472 H         1 UNK         0.0814 
    115 H115      -50.5815  -31.5638   15.4411 H         1 UNK         0.0814 
    116 H116      -51.3007  -28.1695   14.5670 H         1 UNK         0.3091 
    117 H117      -52.7368  -26.1056   14.7780 H         1 UNK         0.0702 
    118 H118      -52.6355  -23.8286   15.6980 H         1 UNK         0.0785 
    119 H119      -51.5041  -24.3389   16.9530 H         1 UNK         0.0785 
    120 H120      -53.1577  -24.9316   16.9569 H         1 UNK         0.0785 
    121 H121      -50.3950  -24.5378   14.7949 H         1 UNK         0.2998 
    122 H122      -48.6571  -24.6942   13.3950 H         1 UNK         0.0697 
    123 H123      -48.7480  -26.9502   11.3202 H         1 UNK         0.0825 
    124 H124      -47.7358  -26.9129   12.7561 H         1 UNK         0.0825 
    125 H125      -47.4790  -25.7364   11.4716 H         1 UNK         0.0825 
    126 H126      -49.9066  -24.8613   10.7628 H         1 UNK         0.3029 
    127 H127      -52.2403  -22.2827   11.2493 H         1 UNK         0.0897 
    128 H128      -51.0608  -20.9957    9.4407 H         1 UNK         0.0792 
    129 H129      -50.3138  -20.7394   11.0120 H         1 UNK         0.0792 
    130 H130      -49.5569  -21.8202    9.8513 H         1 UNK         0.0792 
    131 H131      -51.0612  -23.5656    8.9231 H         1 UNK         0.3086 
    132 H132      -52.3878  -26.5991    9.2712 H         1 UNK         0.0583 
    133 H133      -54.7170  -26.1470    8.8222 H         1 UNK         0.1020 
    134 H134      -54.3458  -24.7953    7.7868 H         1 UNK         0.1020 
    135 H135      -55.5629  -28.4281    7.5692 H         1 UNK         0.0694 
    136 H136      -54.4682  -29.2183    6.4619 H         1 UNK         0.0694 
    137 H137      -51.8381  -25.3225    6.8082 H         1 UNK         0.2989 
    138 H138      -48.7920  -26.5926    6.6676 H         1 UNK         0.1055 
    139 H139      -50.7756  -26.2814    5.2071 H         1 UNK         0.0806 
    140 H140      -49.3636  -25.5066    4.5226 H         1 UNK         0.0806 
    141 H141      -50.5982  -24.5272    5.3000 H         1 UNK         0.0806 
    142 H142      -47.3215  -24.9245    6.7533 H         1 UNK         0.3061 
    143 H143      -47.0346  -22.1582    6.0502 H         1 UNK         0.0734 
    144 H144      -48.3335  -20.5277    7.4456 H         1 UNK         0.0832 
    145 H145      -47.5793  -21.1768    8.8962 H         1 UNK         0.0832 
    146 H146      -46.6026  -20.3723    7.6758 H         1 UNK         0.0832 
    147 H147      -45.2250  -23.0478    6.9521 H         1 UNK         0.3156 
    148 H148      -43.8868  -24.3057    8.1649 H         1 UNK         0.0589 
    149 H149      -44.1231  -22.9878   10.9430 H         1 UNK         0.0808 
    150 H150      -42.6206  -23.5032   10.1784 H         1 UNK         0.0808 
    151 H151      -43.5438  -22.1773    9.4938 H         1 UNK         0.0808 
    152 H152      -45.5615  -25.6066   10.0128 H         1 UNK         0.3098 
    153 H153      -43.4103  -28.4547   10.3529 H         1 UNK         0.0720 
    154 H154      -44.8445  -28.5954   12.3948 H         1 UNK         0.0791 
    155 H155      -43.5896  -27.3817   12.5792 H         1 UNK         0.0791 
    156 H156      -45.2409  -26.8827   12.2528 H         1 UNK         0.0791 
    157 H157      -46.2790  -27.9150   10.2122 H         1 UNK         0.3028 
@<TRIPOS>BOND
     1    1    2 1    
     2    1   82 1    
     3    1   83 1    
     4    1   84 1    
     5    2    3 2    
     6    2    4 am   BACKBONE|DICT|INTERRES
     7    4    5 1    
     8    4   85 1    
     9    5    6 1    
    10    5   80 1    
    11    5   86 1    
    12    6    7 1    
    13    6   87 1    
    14    6   88 1    
    15    7    8 1    
    16    8    9 1    
    17    8   89 1    
    18    8   90 1    
    19    9   10 ar   
    20    9   14 ar   
    21   10   11 ar   
    22   10   91 1    
    23   11   12 ar   
    24   11   58 1    
    25   12   13 ar   
    26   12   92 1    
    27   13   14 ar   
    28   13   15 1    
    29   14   93 1    
    30   15   16 1    
    31   15   94 1    
    32   15   95 1    
    33   16   17 1    
    34   17   18 1    
    35   17   96 1    
    36   17   97 1    
    37   18   19 1    
    38   18   22 1    
    39   18   98 1    
    40   19   20 am   BACKBONE|DICT|INTERRES
    41   19   21 2    
    42   20   99 1    
    43   20  100 1    
    44   22   23 am   BACKBONE|DICT|INTERRES
    45   22  101 1    
    46   23   24 2    
    47   23   25 1    
    48   25   26 1    
    49   25   27 1    
    50   25  102 1    
    51   26  103 1    
    52   26  104 1    
    53   26  105 1    
    54   27   28 am   BACKBONE|DICT|INTERRES
    55   27  106 1    
    56   28   29 2    
    57   28   30 1    
    58   30   31 1    
    59   30   32 1    
    60   30  107 1    
    61   31  108 1    
    62   31  109 1    
    63   31  110 1    
    64   32   33 am   BACKBONE|DICT|INTERRES
    65   32  111 1    
    66   33   34 2    
    67   33   35 1    
    68   35   36 1    
    69   35   37 1    
    70   35  112 1    
    71   36  113 1    
    72   36  114 1    
    73   36  115 1    
    74   37   38 am   BACKBONE|DICT|INTERRES
    75   37  116 1    
    76   38   39 2    
    77   38   40 1    
    78   40   41 1    
    79   40   42 1    
    80   40  117 1    
    81   41  118 1    
    82   41  119 1    
    83   41  120 1    
    84   42   43 am   BACKBONE|DICT|INTERRES
    85   42  121 1    
    86   43   44 2    
    87   43   45 1    
    88   45   46 1    
    89   45   47 1    
    90   45  122 1    
    91   46  123 1    
    92   46  124 1    
    93   46  125 1    
    94   47   48 am   BACKBONE|DICT|INTERRES
    95   47  126 1    
    96   48   49 2    
    97   48   50 1    
    98   50   51 1    
    99   50   52 1    
   100   50  127 1    
   101   51  128 1    
   102   51  129 1    
   103   51  130 1    
   104   52   53 am   BACKBONE|DICT|INTERRES
   105   52  131 1    
   106   53   54 2    
   107   53   55 1    
   108   55   56 1    
   109   55   59 1    
   110   55  132 1    
   111   56   57 1    
   112   56  133 1    
   113   56  134 1    
   114   57   58 1    
   115   58  135 1    
   116   58  136 1    
   117   59   60 am   BACKBONE|DICT|INTERRES
   118   59  137 1    
   119   60   61 2    
   120   60   62 1    
   121   62   63 1    
   122   62   64 1    
   123   62  138 1    
   124   63  139 1    
   125   63  140 1    
   126   63  141 1    
   127   64   65 am   BACKBONE|DICT|INTERRES
   128   64  142 1    
   129   65   66 2    
   130   65   67 1    
   131   67   68 1    
   132   67   69 1    
   133   67  143 1    
   134   68  144 1    
   135   68  145 1    
   136   68  146 1    
   137   69   70 am   BACKBONE|DICT|INTERRES
   138   69  147 1    
   139   70   71 2    
   140   70   72 1    
   141   72   73 1    
   142   72   74 1    
   143   72  148 1    
   144   73  149 1    
   145   73  150 1    
   146   73  151 1    
   147   74   75 am   BACKBONE|DICT|INTERRES
   148   74  152 1    
   149   75   76 2    
   150   75   77 1    
   151   77   78 1    
   152   77   79 1    
   153   77  153 1    
   154   78  154 1    
   155   78  155 1    
   156   78  156 1    
   157   79   80 am   BACKBONE|DICT|INTERRES
   158   79  157 1    
   159   80   81 2    
@<TRIPOS>SUBSTRUCTURE
     1 UNK         1 GROUP             0       ****    0 ROOT    
