@<TRIPOS>MOLECULE
3R207
157   159    1
SMALL
USER_CHARGES


@<TRIPOS>ATOM
      1 CA        -46.3503  -27.8140    3.8511 C.3       0 UNK        -0.1975 
      2 C         -47.4282  -27.7970    4.9246 C.2       0 UNK         0.4852 
      3 O         -48.3837  -27.0281    4.8184 O.2       0 UNK        -0.5216 
      4 N         -47.2802  -28.6352    5.9553 N.am      1 UNK        -0.4461 
      5 CA        -48.1640  -28.7344    7.1145 C.3       1 UNK         0.0864 
      6 C6        -49.5429  -29.3693    6.7812 C.3       14 UNK        -0.0898 
      7 S7        -50.8724  -28.6292    7.7844 S.3       14 UNK        -0.2598 
      8 C8        -51.7298  -27.6206    6.5273 C.3       14 UNK         0.0286 
      9 C9        -52.8930  -26.8150    7.0985 C.ar      14 UNK        -0.0844 
     10 C10       -53.0682  -25.4774    6.7287 C.ar      14 UNK        -0.0881 
     11 C11       -54.1337  -24.7250    7.2400 C.ar      14 UNK        -0.0643 
     12 C12       -55.0281  -25.3290    8.1308 C.ar      14 UNK        -0.0930 
     13 C13       -54.8819  -26.6730    8.4894 C.ar      14 UNK        -0.0827 
     14 C14       -53.8203  -27.4102    7.9594 C.ar      14 UNK        -0.1249 
     15 C15       -55.8914  -27.3367    9.4182 C.3       14 UNK         0.0141 
     16 S16       -55.3558  -27.2925   11.1585 S.3       14 UNK        -0.2313 
     17 C17       -54.1848  -28.6923   11.2417 C.3       14 UNK        -0.0915 
     18 CA        -54.5505  -29.7408   12.3256 C.3       13 UNK         0.0968 
     19 C         -53.6038  -30.9772   12.2716 C.2       13 UNK         0.5732 
     20 N         -52.9885  -31.4110   13.3668 N.am      13 UNK        -0.7310 
     21 O         -53.4357  -31.5732   11.2105 O.2       13 UNK        -0.5035 
     22 N         -54.6484  -29.1410   13.6654 N.am      13 UNK        -0.4233 
     23 C         -55.5248  -29.5305   14.6000 C.2       13 UNK         0.4989 
     24 O         -56.3951  -30.3816   14.4046 O.2       13 UNK        -0.4996 
     25 CA        -55.4138  -28.8612   15.9854 C.3       12 UNK         0.0216 
     26 CB        -56.1325  -29.6590   17.0947 C.3       12 UNK        -0.1964 
     27 N         -54.0365  -28.5541   16.3899 N.am      12 UNK        -0.4276 
     28 C         -53.0082  -29.4100   16.5164 C.2       12 UNK         0.5020 
     29 O         -53.0944  -30.6136   16.2679 O.2       12 UNK        -0.5489 
     30 CA        -51.6501  -28.8297   16.9619 C.3       11 UNK         0.0294 
     31 CB        -50.4822  -29.4697   16.1874 C.3       11 UNK        -0.2019 
     32 N         -51.6041  -27.3807   16.7639 N.am      11 UNK        -0.4493 
     33 C         -51.7331  -26.4501   17.7196 C.2       11 UNK         0.4932 
     34 O         -51.8035  -26.7079   18.9210 O.2       11 UNK        -0.5029 
     35 CA        -51.8367  -24.9817   17.2592 C.3       10 UNK         0.0280 
     36 CB        -50.4845  -24.2717   17.4275 C.3       10 UNK        -0.1976 
     37 N         -52.2969  -24.8397   15.8720 N.am      10 UNK        -0.4242 
     38 C         -53.5298  -25.1672   15.4478 C.2       10 UNK         0.5072 
     39 O         -54.4264  -25.5395   16.2048 O.2       10 UNK        -0.5224 
     40 CA        -53.7956  -25.1692   13.9293 C.3       9 UNK         0.0343 
     41 CB        -54.4415  -23.8475   13.4900 C.3       9 UNK        -0.2003 
     42 N         -52.5962  -25.4217   13.1253 N.am      9 UNK        -0.4272 
     43 C         -51.8400  -26.5277   13.2139 C.2       9 UNK         0.4988 
     44 O         -52.1724  -27.5092   13.8781 O.2       9 UNK        -0.5108 
     45 CA        -50.4684  -26.5438   12.5085 C.3       8 UNK         0.0248 
     46 CB        -50.5288  -27.4251   11.2538 C.3       8 UNK        -0.2001 
     47 N         -49.9574  -25.2235   12.1315 N.am      8 UNK        -0.4140 
     48 C         -49.7712  -24.1788   12.9565 C.2       8 UNK         0.5028 
     49 O         -49.8969  -24.2464   14.1791 O.2       8 UNK        -0.5428 
     50 CA        -49.4889  -22.8092   12.3055 C.3       7 UNK         0.0264 
     51 CB        -47.9920  -22.4804   12.3860 C.3       7 UNK        -0.1988 
     52 N         -49.9440  -22.7248   10.9102 N.am      7 UNK        -0.4454 
     53 C         -51.2167  -22.9170   10.5184 C.2       7 UNK         0.5027 
     54 O         -52.1514  -23.0098   11.3148 O.2       7 UNK        -0.5083 
     55 CA        -51.5065  -23.1340    9.0180 C.3       6 UNK         0.0844 
     56 C56       -52.4435  -22.0325    8.4665 C.3       14 UNK        -0.0967 
     57 S57       -52.8525  -22.2678    6.7030 S.3       14 UNK        -0.2604 
     58 C58       -54.3682  -23.2808    6.7978 C.3       14 UNK         0.0134 
     59 N         -50.3108  -23.3238    8.1903 N.am      6 UNK        -0.4116 
     60 C         -49.4495  -24.3457    8.2745 C.2       5 UNK         0.5034 
     61 O         -49.5221  -25.2368    9.1227 O.2       5 UNK        -0.5045 
     62 CA        -48.2694  -24.3522    7.2868 C.3       5 UNK         0.0224 
     63 CB        -48.3431  -23.2688    6.1865 C.3       5 UNK        -0.1978 
     64 N         -46.9904  -24.2774    7.9984 N.am      5 UNK        -0.4737 
     65 C         -46.5937  -23.3396    8.8687 C.2       4 UNK         0.5027 
     66 O         -47.2688  -22.3538    9.1728 O.2       4 UNK        -0.5211 
     67 CA        -45.2301  -23.5876    9.5463 C.3       4 UNK         0.0297 
     68 CB        -44.6710  -22.3202   10.2191 C.3       4 UNK        -0.1993 
     69 N         -45.3096  -24.6625   10.5414 N.am      4 UNK        -0.4486 
     70 C         -45.4737  -25.9632   10.2670 C.2       3 UNK         0.4961 
     71 O         -45.4943  -26.4142    9.1180 O.2       3 UNK        -0.5105 
     72 CA        -45.6710  -26.9224   11.4530 C.3       3 UNK         0.0299 
     73 CB        -46.2595  -26.2569   12.7146 C.3       3 UNK        -0.1972 
     74 N         -46.5572  -27.9871   10.9997 N.am      3 UNK        -0.4305 
     75 C         -46.4949  -29.2804   11.3326 C.2       2 UNK         0.5006 
     76 O         -45.7193  -29.7369   12.1733 O.2       2 UNK        -0.5106 
     77 CA        -47.4640  -30.2322   10.6016 C.3       2 UNK         0.0296 
     78 CB        -48.5827  -30.6945   11.5509 C.3       2 UNK        -0.2002 
     79 N         -48.0574  -29.6372    9.3952 N.am      2 UNK        -0.4032 
     80 C         -47.4113  -29.4848    8.2302 C.2       1 UNK         0.5000 
     81 O         -46.2674  -29.9036    8.0237 O.2       1 UNK        -0.5238 
     82 H82       -45.8884  -26.8306    3.7687 H         1 UNK         0.0889 
     83 H83       -46.7871  -28.0680    2.8857 H         1 UNK         0.0889 
     84 H84       -45.5675  -28.5397    4.0711 H         1 UNK         0.0889 
     85 H85       -46.4554  -29.2193    6.0374 H         1 UNK         0.3028 
     86 H86       -48.3089  -27.7136    7.4760 H         1 UNK         0.0864 
     87 H87       -49.5397  -30.4510    6.9300 H         1 UNK         0.0720 
     88 H88       -49.7925  -29.2309    5.7285 H         1 UNK         0.0720 
     89 H89       -50.9989  -26.9565    6.0622 H         1 UNK         0.0814 
     90 H90       -52.1090  -28.2726    5.7395 H         1 UNK         0.0814 
     91 H91       -52.3764  -25.0196    6.0352 H         1 UNK         0.1469 
     92 H92       -55.8573  -24.7597    8.5281 H         1 UNK         0.1381 
     93 H93       -53.7106  -28.4538    8.2150 H         1 UNK         0.1206 
     94 H94       -56.0749  -28.3670    9.1098 H         1 UNK         0.0813 
     95 H95       -56.8529  -26.8272    9.3409 H         1 UNK         0.0813 
     96 H96       -54.1430  -29.1768   10.2670 H         1 UNK         0.0638 
     97 H97       -53.1905  -28.2909   11.4164 H         1 UNK         0.0638 
     98 H98       -55.5328  -30.1296   12.0517 H         1 UNK         0.0568 
     99 H99       -53.1357  -30.9728   14.2692 H         1 UNK         0.3450 
    100 H100      -52.3897  -32.2175   13.2993 H         1 UNK         0.3450 
    101 H101      -53.9154  -28.4805   13.9027 H         1 UNK         0.2987 
    102 H102      -55.9222  -27.9006   15.8910 H         1 UNK         0.0766 
    103 H103      -56.0648  -29.1504   18.0563 H         1 UNK         0.0798 
    104 H104      -57.1929  -29.7794   16.8691 H         1 UNK         0.0798 
    105 H105      -55.7091  -30.6571   17.2124 H         1 UNK         0.0798 
    106 H106      -53.8631  -27.5741   16.5826 H         1 UNK         0.3198 
    107 H107      -51.5306  -29.0708   18.0201 H         1 UNK         0.0843 
    108 H108      -50.4296  -30.5432   16.3732 H         1 UNK         0.0831 
    109 H109      -49.5251  -29.0442   16.4890 H         1 UNK         0.0831 
    110 H110      -50.5867  -29.3318   15.1104 H         1 UNK         0.0831 
    111 H111      -51.5984  -27.0865   15.7932 H         1 UNK         0.3133 
    112 H112      -52.5637  -24.4845   17.9048 H         1 UNK         0.0566 
    113 H113      -49.7037  -24.7444   16.8303 H         1 UNK         0.0814 
    114 H114      -50.1577  -24.2969   18.4680 H         1 UNK         0.0814 
    115 H115      -50.5445  -23.2243   17.1315 H         1 UNK         0.0814 
    116 H116      -51.5930  -24.5647   15.1911 H         1 UNK         0.3091 
    117 H117      -54.5019  -25.9763   13.7275 H         1 UNK         0.0702 
    118 H118      -54.7108  -23.8727   12.4337 H         1 UNK         0.0785 
    119 H119      -53.7719  -23.0005   13.6450 H         1 UNK         0.0785 
    120 H120      -55.3552  -23.6520   14.0530 H         1 UNK         0.0785 
    121 H121      -52.2870  -24.6580   12.5328 H         1 UNK         0.2998 
    122 H122      -49.7527  -26.9830   13.2061 H         1 UNK         0.0697 
    123 H123      -51.2156  -27.0178   10.5097 H         1 UNK         0.0825 
    124 H124      -50.8691  -28.4323   11.4943 H         1 UNK         0.0825 
    125 H125      -49.5492  -27.5124   10.7867 H         1 UNK         0.0825 
    126 H126      -49.8221  -25.0763   11.1356 H         1 UNK         0.3029 
    127 H127      -50.0382  -22.0584   12.8774 H         1 UNK         0.0897 
    128 H128      -47.7754  -21.4997   11.9618 H         1 UNK         0.0792 
    129 H129      -47.6496  -22.4700   13.4218 H         1 UNK         0.0792 
    130 H130      -47.3943  -23.2177   11.8526 H         1 UNK         0.0792 
    131 H131      -49.2218  -22.6419   10.2025 H         1 UNK         0.3086 
    132 H132      -52.0529  -24.0775    8.9774 H         1 UNK         0.0583 
    133 H133      -53.3703  -21.9915    9.0426 H         1 UNK         0.1020 
    134 H134      -51.9792  -21.0504    8.5751 H         1 UNK         0.1020 
    135 H135      -55.0823  -22.7838    7.4563 H         1 UNK         0.0694 
    136 H136      -54.8284  -23.3006    5.8093 H         1 UNK         0.0694 
    137 H137      -50.1556  -22.6255    7.4783 H         1 UNK         0.2989 
    138 H138      -48.2999  -25.3250    6.7970 H         1 UNK         0.1055 
    139 H139      -47.5209  -23.3809    5.4796 H         1 UNK         0.0806 
    140 H140      -48.2882  -22.2580    6.5925 H         1 UNK         0.0806 
    141 H141      -49.2658  -23.3518    5.6101 H         1 UNK         0.0806 
    142 H142      -46.4039  -25.1052    7.9401 H         1 UNK         0.3061 
    143 H143      -44.5250  -23.8866    8.7675 H         1 UNK         0.0734 
    144 H144      -44.5949  -21.5018    9.5019 H         1 UNK         0.0832 
    145 H145      -45.3059  -21.9761   11.0360 H         1 UNK         0.0832 
    146 H146      -43.6716  -22.4911   10.6197 H         1 UNK         0.0832 
    147 H147      -45.3066  -24.3771   11.5094 H         1 UNK         0.3156 
    148 H148      -44.6914  -27.3406   11.6927 H         1 UNK         0.0589 
    149 H149      -47.1976  -25.7464   12.4999 H         1 UNK         0.0808 
    150 H150      -46.4598  -26.9962   13.4905 H         1 UNK         0.0808 
    151 H151      -45.5705  -25.5297   13.1449 H         1 UNK         0.0808 
    152 H152      -47.1674  -27.7236   10.2396 H         1 UNK         0.3098 
    153 H153      -46.8922  -31.1132   10.3018 H         1 UNK         0.0720 
    154 H154      -49.3064  -31.3310   11.0412 H         1 UNK         0.0791 
    155 H155      -48.1701  -31.2741   12.3779 H         1 UNK         0.0791 
    156 H156      -49.1186  -29.8540   11.9896 H         1 UNK         0.0791 
    157 H157      -49.0134  -29.3135    9.4613 H         1 UNK         0.3028 
@<TRIPOS>BOND
     1    1    2 1    
     2    1   82 1    
     3    1   83 1    
     4    1   84 1    
     5    2    3 2    
     6    2    4 am   BACKBONE|DICT|INTERRES
     7    4    5 1    
     8    4   85 1    
     9    5    6 1    
    10    5   80 1    
    11    5   86 1    
    12    6    7 1    
    13    6   87 1    
    14    6   88 1    
    15    7    8 1    
    16    8    9 1    
    17    8   89 1    
    18    8   90 1    
    19    9   10 ar   
    20    9   14 ar   
    21   10   11 ar   
    22   10   91 1    
    23   11   12 ar   
    24   11   58 1    
    25   12   13 ar   
    26   12   92 1    
    27   13   14 ar   
    28   13   15 1    
    29   14   93 1    
    30   15   16 1    
    31   15   94 1    
    32   15   95 1    
    33   16   17 1    
    34   17   18 1    
    35   17   96 1    
    36   17   97 1    
    37   18   19 1    
    38   18   22 1    
    39   18   98 1    
    40   19   20 am   BACKBONE|DICT|INTERRES
    41   19   21 2    
    42   20   99 1    
    43   20  100 1    
    44   22   23 am   BACKBONE|DICT|INTERRES
    45   22  101 1    
    46   23   24 2    
    47   23   25 1    
    48   25   26 1    
    49   25   27 1    
    50   25  102 1    
    51   26  103 1    
    52   26  104 1    
    53   26  105 1    
    54   27   28 am   BACKBONE|DICT|INTERRES
    55   27  106 1    
    56   28   29 2    
    57   28   30 1    
    58   30   31 1    
    59   30   32 1    
    60   30  107 1    
    61   31  108 1    
    62   31  109 1    
    63   31  110 1    
    64   32   33 am   BACKBONE|DICT|INTERRES
    65   32  111 1    
    66   33   34 2    
    67   33   35 1    
    68   35   36 1    
    69   35   37 1    
    70   35  112 1    
    71   36  113 1    
    72   36  114 1    
    73   36  115 1    
    74   37   38 am   BACKBONE|DICT|INTERRES
    75   37  116 1    
    76   38   39 2    
    77   38   40 1    
    78   40   41 1    
    79   40   42 1    
    80   40  117 1    
    81   41  118 1    
    82   41  119 1    
    83   41  120 1    
    84   42   43 am   BACKBONE|DICT|INTERRES
    85   42  121 1    
    86   43   44 2    
    87   43   45 1    
    88   45   46 1    
    89   45   47 1    
    90   45  122 1    
    91   46  123 1    
    92   46  124 1    
    93   46  125 1    
    94   47   48 am   BACKBONE|DICT|INTERRES
    95   47  126 1    
    96   48   49 2    
    97   48   50 1    
    98   50   51 1    
    99   50   52 1    
   100   50  127 1    
   101   51  128 1    
   102   51  129 1    
   103   51  130 1    
   104   52   53 am   BACKBONE|DICT|INTERRES
   105   52  131 1    
   106   53   54 2    
   107   53   55 1    
   108   55   56 1    
   109   55   59 1    
   110   55  132 1    
   111   56   57 1    
   112   56  133 1    
   113   56  134 1    
   114   57   58 1    
   115   58  135 1    
   116   58  136 1    
   117   59   60 am   BACKBONE|DICT|INTERRES
   118   59  137 1    
   119   60   61 2    
   120   60   62 1    
   121   62   63 1    
   122   62   64 1    
   123   62  138 1    
   124   63  139 1    
   125   63  140 1    
   126   63  141 1    
   127   64   65 am   BACKBONE|DICT|INTERRES
   128   64  142 1    
   129   65   66 2    
   130   65   67 1    
   131   67   68 1    
   132   67   69 1    
   133   67  143 1    
   134   68  144 1    
   135   68  145 1    
   136   68  146 1    
   137   69   70 am   BACKBONE|DICT|INTERRES
   138   69  147 1    
   139   70   71 2    
   140   70   72 1    
   141   72   73 1    
   142   72   74 1    
   143   72  148 1    
   144   73  149 1    
   145   73  150 1    
   146   73  151 1    
   147   74   75 am   BACKBONE|DICT|INTERRES
   148   74  152 1    
   149   75   76 2    
   150   75   77 1    
   151   77   78 1    
   152   77   79 1    
   153   77  153 1    
   154   78  154 1    
   155   78  155 1    
   156   78  156 1    
   157   79   80 am   BACKBONE|DICT|INTERRES
   158   79  157 1    
   159   80   81 2    
@<TRIPOS>SUBSTRUCTURE
     1 UNK         1 GROUP             0       ****    0 ROOT    
