@<TRIPOS>MOLECULE
3R207
157   159    1
SMALL
USER_CHARGES


@<TRIPOS>ATOM
      1 CA        -50.7323  -31.7375    6.9755 C.3       0 UNK        -0.1975 
      2 C         -50.4181  -30.6510    5.9602 C.2       0 UNK         0.4852 
      3 O         -49.6781  -30.8927    5.0060 O.2       0 UNK        -0.5216 
      4 N         -50.9721  -29.4494    6.1663 N.am      1 UNK        -0.4461 
      5 CA        -50.7997  -28.2820    5.2895 C.3       1 UNK         0.0864 
      6 C6        -51.8998  -27.2133    5.5188 C.3       14 UNK        -0.0898 
      7 S7        -53.5868  -27.8542    5.2402 S.3       14 UNK        -0.2598 
      8 C8        -54.3415  -27.6899    6.8900 C.3       14 UNK         0.0286 
      9 C9        -53.7929  -28.7196    7.8656 C.ar      14 UNK        -0.0844 
     10 C10       -52.7697  -28.3760    8.7536 C.ar      14 UNK        -0.0881 
     11 C11       -52.2358  -29.3284    9.6293 C.ar      14 UNK        -0.0643 
     12 C12       -52.7807  -30.6151    9.6460 C.ar      14 UNK        -0.0930 
     13 C13       -53.8321  -30.9619    8.7921 C.ar      14 UNK        -0.0827 
     14 C14       -54.3151  -30.0159    7.8833 C.ar      14 UNK        -0.1249 
     15 C15       -54.4418  -32.3576    8.8593 C.3       14 UNK         0.0141 
     16 S16       -55.0604  -32.7679   10.5303 S.3       14 UNK        -0.2313 
     17 C17       -56.8025  -32.2018   10.5684 C.3       14 UNK        -0.0915 
     18 CA        -57.1180  -30.8217    9.9196 C.3       13 UNK         0.0968 
     19 C         -58.6394  -30.4779    9.9451 C.2       13 UNK         0.5732 
     20 N         -59.0300  -29.2120   10.0335 N.am      13 UNK        -0.7310 
     21 O         -59.4835  -31.3659    9.8466 O.2       13 UNK        -0.5035 
     22 N         -56.2293  -29.7442   10.3866 N.am      13 UNK        -0.4233 
     23 C         -56.1534  -29.2307   11.6184 C.2       13 UNK         0.4989 
     24 O         -56.8621  -29.5701   12.5699 O.2       13 UNK        -0.4996 
     25 CA        -55.1098  -28.1241   11.8003 C.3       12 UNK         0.0216 
     26 CB        -55.5404  -26.8222   11.0946 C.3       12 UNK        -0.1964 
     27 N         -54.8960  -27.8875   13.2245 N.am      12 UNK        -0.4276 
     28 C         -53.8134  -27.3065   13.7482 C.2       12 UNK         0.5020 
     29 O         -52.8705  -26.8814   13.0787 O.2       12 UNK        -0.5489 
     30 CA        -53.7607  -27.1988   15.2744 C.3       11 UNK         0.0294 
     31 CB        -53.2273  -28.4989   15.9020 C.3       11 UNK        -0.2019 
     32 N         -52.8823  -26.0892   15.6334 N.am      11 UNK        -0.4493 
     33 C         -53.0209  -25.3124   16.7134 C.2       11 UNK         0.4932 
     34 O         -53.9145  -25.4563   17.5503 O.2       11 UNK        -0.5029 
     35 CA        -51.9742  -24.1957   16.8798 C.3       10 UNK         0.0280 
     36 CB        -52.1064  -23.4174   18.2061 C.3       10 UNK        -0.1976 
     37 N         -50.6108  -24.6978   16.6923 N.am      10 UNK        -0.4242 
     38 C         -49.9557  -25.6105   17.4254 C.2       10 UNK         0.5072 
     39 O         -50.4039  -26.1382   18.4442 O.2       10 UNK        -0.5224 
     40 CA        -48.5545  -26.0163   16.9314 C.3       9 UNK         0.0343 
     41 CB        -48.6425  -27.3012   16.0914 C.3       9 UNK        -0.2003 
     42 N         -47.8905  -24.9720   16.1454 N.am      9 UNK        -0.4272 
     43 C         -47.4358  -23.8118   16.6405 C.2       9 UNK         0.4988 
     44 O         -47.4475  -23.5257   17.8384 O.2       9 UNK        -0.5108 
     45 CA        -46.9006  -22.7849   15.6263 C.3       8 UNK         0.0248 
     46 CB        -45.4440  -23.0971   15.2482 C.3       8 UNK        -0.2001 
     47 N         -47.7261  -22.6925   14.4165 N.am      8 UNK        -0.4140 
     48 C         -48.9917  -22.2452   14.3999 C.2       8 UNK         0.5028 
     49 O         -49.5782  -21.8132   15.3923 O.2       8 UNK        -0.5428 
     50 CA        -49.7492  -22.3124   13.0634 C.3       7 UNK         0.0264 
     51 CB        -49.3969  -21.1039   12.1818 C.3       7 UNK        -0.1988 
     52 N         -49.5108  -23.5568   12.3270 N.am      7 UNK        -0.4454 
     53 C         -49.8667  -24.7770   12.7589 C.2       7 UNK         0.5027 
     54 O         -50.4830  -24.9685   13.8084 O.2       7 UNK        -0.5083 
     55 CA        -49.3902  -25.9882   11.9279 C.3       6 UNK         0.0844 
     56 C56       -50.3172  -26.2742   10.7213 C.3       14 UNK        -0.0967 
     57 S57       -49.8664  -27.8427    9.8966 S.3       14 UNK        -0.2604 
     58 C58       -51.0973  -28.9947   10.5895 C.3       14 UNK         0.0134 
     59 N         -47.9897  -25.8443   11.5221 N.am      6 UNK        -0.4116 
     60 C         -46.9466  -25.7655   12.3578 C.2       5 UNK         0.5034 
     61 O         -47.0366  -25.8444   13.5816 O.2       5 UNK        -0.5045 
     62 CA        -45.5752  -25.5043   11.7218 C.3       5 UNK         0.0224 
     63 CB        -44.9548  -26.8093   11.1975 C.3       5 UNK        -0.1978 
     64 N         -45.6627  -24.5219   10.6399 N.am      5 UNK        -0.4737 
     65 C         -45.8622  -23.2110   10.8290 C.2       4 UNK         0.5027 
     66 O         -45.9594  -22.6894   11.9398 O.2       4 UNK        -0.5211 
     67 CA        -46.0069  -22.3420    9.5674 C.3       4 UNK         0.0297 
     68 CB        -44.6256  -21.9778    9.0007 C.3       4 UNK        -0.1993 
     69 N         -46.8203  -22.9688    8.5203 N.am      4 UNK        -0.4486 
     70 C         -48.1284  -23.2302    8.6441 C.2       3 UNK         0.4961 
     71 O         -48.7832  -22.9834    9.6549 O.2       3 UNK        -0.5105 
     72 CA        -48.8287  -23.9130    7.4581 C.3       3 UNK         0.0299 
     73 CB        -49.1052  -22.8993    6.3363 C.3       3 UNK        -0.1972 
     74 N         -48.1666  -25.0964    6.8952 N.am      3 UNK        -0.4305 
     75 C         -47.5682  -26.0952    7.5607 C.2       2 UNK         0.5006 
     76 O         -47.2753  -26.0582    8.7551 O.2       2 UNK        -0.5106 
     77 CA        -47.3257  -27.3843    6.7580 C.3       2 UNK         0.0296 
     78 CB        -46.4728  -28.4089    7.5300 C.3       2 UNK        -0.2002 
     79 N         -48.6131  -27.9968    6.4226 N.am      2 UNK        -0.4032 
     80 C         -49.4015  -27.6314    5.4011 C.2       1 UNK         0.5000 
     81 O         -49.0717  -26.7732    4.5787 O.2       1 UNK        -0.5238 
     82 H82       -50.1221  -32.6227    6.7973 H         1 UNK         0.0889 
     83 H83       -51.7802  -32.0278    6.9075 H         1 UNK         0.0889 
     84 H84       -50.5311  -31.3886    7.9879 H         1 UNK         0.0889 
     85 H85       -51.6057  -29.3214    6.9457 H         1 UNK         0.3028 
     86 H86       -50.8896  -28.6305    4.2583 H         1 UNK         0.0864 
     87 H87       -51.8206  -26.7854    6.5190 H         1 UNK         0.0720 
     88 H88       -51.7646  -26.3774    4.8295 H         1 UNK         0.0720 
     89 H89       -55.4209  -27.8176    6.7955 H         1 UNK         0.0814 
     90 H90       -54.1903  -26.6768    7.2662 H         1 UNK         0.0814 
     91 H91       -52.3803  -27.3678    8.7538 H         1 UNK         0.1469 
     92 H92       -52.3960  -31.3515   10.3386 H         1 UNK         0.1381 
     93 H93       -55.1095  -30.2805    7.1984 H         1 UNK         0.1206 
     94 H94       -55.2406  -32.4846    8.1275 H         1 UNK         0.0813 
     95 H95       -53.6700  -33.0804    8.5919 H         1 UNK         0.0813 
     96 H96       -57.3925  -32.9818   10.0842 H         1 UNK         0.0638 
     97 H97       -57.1187  -32.1986   11.6128 H         1 UNK         0.0638 
     98 H98       -56.9070  -30.9179    8.8557 H         1 UNK         0.0568 
     99 H99       -60.0151  -28.9999   10.0372 H         1 UNK         0.3450 
    100 H100      -58.3527  -28.4710   10.1062 H         1 UNK         0.3450 
    101 H101      -55.5755  -29.4108    9.6913 H         1 UNK         0.2987 
    102 H102      -54.1740  -28.4783   11.3678 H         1 UNK         0.0766 
    103 H103      -54.7793  -26.0477   11.1912 H         1 UNK         0.0798 
    104 H104      -56.4702  -26.4301   11.5081 H         1 UNK         0.0798 
    105 H105      -55.6952  -26.9810   10.0268 H         1 UNK         0.0798 
    106 H106      -55.6176  -28.2734   13.8224 H         1 UNK         0.3198 
    107 H107      -54.7714  -27.0016   15.6389 H         1 UNK         0.0843 
    108 H108      -52.2192  -28.7273   15.5534 H         1 UNK         0.0831 
    109 H109      -53.8626  -29.3484   15.6484 H         1 UNK         0.0831 
    110 H110      -53.1966  -28.4302   16.9896 H         1 UNK         0.0831 
    111 H111      -52.1655  -25.8760   14.9431 H         1 UNK         0.3133 
    112 H112      -52.1476  -23.4892   16.0667 H         1 UNK         0.0566 
    113 H113      -51.3582  -22.6276   18.2755 H         1 UNK         0.0814 
    114 H114      -53.0860  -22.9442   18.2833 H         1 UNK         0.0814 
    115 H115      -51.9911  -24.0672   19.0740 H         1 UNK         0.0814 
    116 H116      -50.1683  -24.4041   15.8289 H         1 UNK         0.3091 
    117 H117      -47.9396  -26.2212   17.8101 H         1 UNK         0.0702 
    118 H118      -49.1063  -28.1092   16.6590 H         1 UNK         0.0785 
    119 H119      -49.2378  -27.1519   15.1896 H         1 UNK         0.0785 
    120 H120      -47.6538  -27.6440   15.7859 H         1 UNK         0.0785 
    121 H121      -47.7592  -25.1639   15.1541 H         1 UNK         0.2998 
    122 H122      -46.9181  -21.8061   16.1102 H         1 UNK         0.0697 
    123 H123      -45.3524  -24.0597   14.7457 H         1 UNK         0.0825 
    124 H124      -44.8100  -23.1312   16.1352 H         1 UNK         0.0825 
    125 H125      -45.0339  -22.3341   14.5862 H         1 UNK         0.0825 
    126 H126      -47.2921  -22.9723   13.5430 H         1 UNK         0.3029 
    127 H127      -50.8166  -22.2655   13.2903 H         1 UNK         0.0897 
    128 H128      -50.0086  -21.0808   11.2798 H         1 UNK         0.0792 
    129 H129      -48.3503  -21.1192   11.8751 H         1 UNK         0.0792 
    130 H130      -49.5693  -20.1672   12.7136 H         1 UNK         0.0792 
    131 H131      -49.0565  -23.4640   11.4199 H         1 UNK         0.3086 
    132 H132      -49.4402  -26.8544   12.5914 H         1 UNK         0.0583 
    133 H133      -51.3632  -26.3115   11.0297 H         1 UNK         0.1020 
    134 H134      -50.2496  -25.4681    9.9892 H         1 UNK         0.1020 
    135 H135      -50.5657  -29.9086   10.8585 H         1 UNK         0.0694 
    136 H136      -51.5096  -28.6019   11.5189 H         1 UNK         0.0694 
    137 H137      -47.8062  -25.8221   10.5211 H         1 UNK         0.2989 
    138 H138      -44.9190  -25.1034   12.4976 H         1 UNK         0.1055 
    139 H139      -44.8447  -27.5368   12.0029 H         1 UNK         0.0806 
    140 H140      -43.9632  -26.6370   10.7790 H         1 UNK         0.0806 
    141 H141      -45.5695  -27.2720   10.4248 H         1 UNK         0.0806 
    142 H142      -45.7216  -24.8894    9.6980 H         1 UNK         0.3061 
    143 H143      -46.5049  -21.4164    9.8647 H         1 UNK         0.0734 
    144 H144      -44.7097  -21.2847    8.1635 H         1 UNK         0.0832 
    145 H145      -44.0098  -21.4929    9.7596 H         1 UNK         0.0832 
    146 H146      -44.0830  -22.8589    8.6559 H         1 UNK         0.0832 
    147 H147      -46.3559  -23.2285    7.6621 H         1 UNK         0.3156 
    148 H148      -49.7950  -24.2616    7.8269 H         1 UNK         0.0589 
    149 H149      -48.1841  -22.5642    5.8581 H         1 UNK         0.0808 
    150 H150      -49.7469  -23.3258    5.5650 H         1 UNK         0.0808 
    151 H151      -49.6131  -22.0146    6.7234 H         1 UNK         0.0808 
    152 H152      -48.3645  -25.2800    5.9177 H         1 UNK         0.3098 
    153 H153      -46.7921  -27.1200    5.8427 H         1 UNK         0.0720 
    154 H154      -46.2876  -29.3010    6.9316 H         1 UNK         0.0791 
    155 H155      -46.9556  -28.7215    8.4572 H         1 UNK         0.0791 
    156 H156      -45.5020  -27.9875    7.7940 H         1 UNK         0.0791 
    157 H157      -48.9777  -28.6675    7.0836 H         1 UNK         0.3028 
@<TRIPOS>BOND
     1    1    2 1    
     2    1   82 1    
     3    1   83 1    
     4    1   84 1    
     5    2    3 2    
     6    2    4 am   BACKBONE|DICT|INTERRES
     7    4    5 1    
     8    4   85 1    
     9    5    6 1    
    10    5   80 1    
    11    5   86 1    
    12    6    7 1    
    13    6   87 1    
    14    6   88 1    
    15    7    8 1    
    16    8    9 1    
    17    8   89 1    
    18    8   90 1    
    19    9   10 ar   
    20    9   14 ar   
    21   10   11 ar   
    22   10   91 1    
    23   11   12 ar   
    24   11   58 1    
    25   12   13 ar   
    26   12   92 1    
    27   13   14 ar   
    28   13   15 1    
    29   14   93 1    
    30   15   16 1    
    31   15   94 1    
    32   15   95 1    
    33   16   17 1    
    34   17   18 1    
    35   17   96 1    
    36   17   97 1    
    37   18   19 1    
    38   18   22 1    
    39   18   98 1    
    40   19   20 am   BACKBONE|DICT|INTERRES
    41   19   21 2    
    42   20   99 1    
    43   20  100 1    
    44   22   23 am   BACKBONE|DICT|INTERRES
    45   22  101 1    
    46   23   24 2    
    47   23   25 1    
    48   25   26 1    
    49   25   27 1    
    50   25  102 1    
    51   26  103 1    
    52   26  104 1    
    53   26  105 1    
    54   27   28 am   BACKBONE|DICT|INTERRES
    55   27  106 1    
    56   28   29 2    
    57   28   30 1    
    58   30   31 1    
    59   30   32 1    
    60   30  107 1    
    61   31  108 1    
    62   31  109 1    
    63   31  110 1    
    64   32   33 am   BACKBONE|DICT|INTERRES
    65   32  111 1    
    66   33   34 2    
    67   33   35 1    
    68   35   36 1    
    69   35   37 1    
    70   35  112 1    
    71   36  113 1    
    72   36  114 1    
    73   36  115 1    
    74   37   38 am   BACKBONE|DICT|INTERRES
    75   37  116 1    
    76   38   39 2    
    77   38   40 1    
    78   40   41 1    
    79   40   42 1    
    80   40  117 1    
    81   41  118 1    
    82   41  119 1    
    83   41  120 1    
    84   42   43 am   BACKBONE|DICT|INTERRES
    85   42  121 1    
    86   43   44 2    
    87   43   45 1    
    88   45   46 1    
    89   45   47 1    
    90   45  122 1    
    91   46  123 1    
    92   46  124 1    
    93   46  125 1    
    94   47   48 am   BACKBONE|DICT|INTERRES
    95   47  126 1    
    96   48   49 2    
    97   48   50 1    
    98   50   51 1    
    99   50   52 1    
   100   50  127 1    
   101   51  128 1    
   102   51  129 1    
   103   51  130 1    
   104   52   53 am   BACKBONE|DICT|INTERRES
   105   52  131 1    
   106   53   54 2    
   107   53   55 1    
   108   55   56 1    
   109   55   59 1    
   110   55  132 1    
   111   56   57 1    
   112   56  133 1    
   113   56  134 1    
   114   57   58 1    
   115   58  135 1    
   116   58  136 1    
   117   59   60 am   BACKBONE|DICT|INTERRES
   118   59  137 1    
   119   60   61 2    
   120   60   62 1    
   121   62   63 1    
   122   62   64 1    
   123   62  138 1    
   124   63  139 1    
   125   63  140 1    
   126   63  141 1    
   127   64   65 am   BACKBONE|DICT|INTERRES
   128   64  142 1    
   129   65   66 2    
   130   65   67 1    
   131   67   68 1    
   132   67   69 1    
   133   67  143 1    
   134   68  144 1    
   135   68  145 1    
   136   68  146 1    
   137   69   70 am   BACKBONE|DICT|INTERRES
   138   69  147 1    
   139   70   71 2    
   140   70   72 1    
   141   72   73 1    
   142   72   74 1    
   143   72  148 1    
   144   73  149 1    
   145   73  150 1    
   146   73  151 1    
   147   74   75 am   BACKBONE|DICT|INTERRES
   148   74  152 1    
   149   75   76 2    
   150   75   77 1    
   151   77   78 1    
   152   77   79 1    
   153   77  153 1    
   154   78  154 1    
   155   78  155 1    
   156   78  156 1    
   157   79   80 am   BACKBONE|DICT|INTERRES
   158   79  157 1    
   159   80   81 2    
@<TRIPOS>SUBSTRUCTURE
     1 UNK         1 GROUP             0       ****    0 ROOT    
