@<TRIPOS>MOLECULE
3R207
157   159    1
SMALL
USER_CHARGES


@<TRIPOS>ATOM
      1 CA        -50.7209  -23.7414    2.9702 C.3       0 UNK        -0.1975 
      2 C         -50.6991  -24.7319    4.1252 C.2       0 UNK         0.4852 
      3 O         -50.1976  -24.4013    5.1994 O.2       0 UNK        -0.5216 
      4 N         -51.2446  -25.9364    3.9084 N.am      1 UNK        -0.4461 
      5 CA        -51.2875  -27.0403    4.8757 C.3       1 UNK         0.0864 
      6 C6        -52.2253  -28.1741    4.3919 C.3       14 UNK        -0.0898 
      7 S7        -53.9702  -27.6443    4.4896 S.3       14 UNK        -0.2598 
      8 C8        -54.6353  -28.6663    5.8504 C.3       14 UNK         0.0286 
      9 C9        -53.7384  -28.6936    7.0834 C.ar      14 UNK        -0.0844 
     10 C10       -53.4421  -27.5177    7.7790 C.ar      14 UNK        -0.0881 
     11 C11       -52.5820  -27.5438    8.8809 C.ar      14 UNK        -0.0643 
     12 C12       -52.0407  -28.7621    9.3042 C.ar      14 UNK        -0.0930 
     13 C13       -52.3617  -29.9519    8.6416 C.ar      14 UNK        -0.0827 
     14 C14       -53.2016  -29.9062    7.5260 C.ar      14 UNK        -0.1249 
     15 C15       -51.7919  -31.2905    9.1019 C.3       14 UNK         0.0141 
     16 S16       -52.0399  -31.6146   10.8782 S.3       14 UNK        -0.2313 
     17 C17       -53.8586  -31.6763   11.0168 C.3       14 UNK        -0.0915 
     18 CA        -54.4219  -30.4546   11.8094 C.3       13 UNK         0.0968 
     19 C         -55.6361  -29.7940   11.0991 C.2       13 UNK         0.5732 
     20 N         -55.4377  -29.2197    9.9230 N.am      13 UNK        -0.7310 
     21 O         -56.7639  -29.8074   11.5948 O.2       13 UNK        -0.5035 
     22 N         -54.8099  -30.7712   13.1883 N.am      13 UNK        -0.4233 
     23 C         -54.0632  -31.2442   14.1911 C.2       13 UNK         0.4989 
     24 O         -52.8913  -31.6075   14.0891 O.2       13 UNK        -0.4996 
     25 CA        -54.7702  -31.2594   15.5625 C.3       12 UNK         0.0216 
     26 CB        -53.9140  -31.8691   16.6946 C.3       12 UNK        -0.1964 
     27 N         -55.2520  -29.9123   15.9071 N.am      12 UNK        -0.4276 
     28 C         -54.4975  -28.8145   16.0687 C.2       12 UNK         0.5020 
     29 O         -53.2684  -28.8197   16.1772 O.2       12 UNK        -0.5489 
     30 CA        -55.2490  -27.4716   16.1024 C.3       11 UNK         0.0294 
     31 CB        -55.5155  -27.0357   17.5521 C.3       11 UNK        -0.2019 
     32 N         -54.4844  -26.4254   15.4201 N.am      11 UNK        -0.4493 
     33 C         -54.1317  -26.4287   14.1277 C.2       11 UNK         0.4932 
     34 O         -54.5659  -27.2385   13.3082 O.2       11 UNK        -0.5029 
     35 CA        -53.1029  -25.3797   13.6591 C.3       10 UNK         0.0280 
     36 CB        -53.8035  -24.1217   13.1096 C.3       10 UNK        -0.1976 
     37 N         -52.0546  -25.0440   14.6411 N.am      10 UNK        -0.4242 
     38 C         -52.1926  -24.4224   15.8221 C.2       10 UNK         0.5072 
     39 O         -53.2645  -23.9757   16.2326 O.2       10 UNK        -0.5224 
     40 CA        -50.9767  -24.3478   16.7541 C.3       9 UNK         0.0343 
     41 CB        -50.9707  -25.5676   17.6979 C.3       9 UNK        -0.2003 
     42 N         -49.6846  -24.2308   16.0688 N.am      9 UNK        -0.4272 
     43 C         -48.5909  -23.7274   16.6605 C.2       9 UNK         0.4988 
     44 O         -48.5818  -23.2616   17.8016 O.2       9 UNK        -0.5108 
     45 CA        -47.2720  -23.7655   15.8733 C.3       8 UNK         0.0248 
     46 CB        -46.6680  -25.1784   15.9111 C.3       8 UNK        -0.2001 
     47 N         -47.3940  -23.3027   14.4896 N.am      8 UNK        -0.4140 
     48 C         -47.6686  -22.0372   14.1378 C.2       8 UNK         0.5028 
     49 O         -47.8579  -21.1251   14.9439 O.2       8 UNK        -0.5428 
     50 CA        -47.7352  -21.7263   12.6329 C.3       7 UNK         0.0264 
     51 CB        -46.3247  -21.5142   12.0596 C.3       7 UNK        -0.1988 
     52 N         -48.4232  -22.7661   11.8678 N.am      7 UNK        -0.4454 
     53 C         -49.7322  -23.0404   11.9654 C.2       7 UNK         0.5027 
     54 O         -50.5172  -22.3934   12.6588 O.2       7 UNK        -0.5083 
     55 CA        -50.2438  -24.2692   11.1871 C.3       6 UNK         0.0844 
     56 C56       -50.5612  -23.9011    9.7157 C.3       14 UNK        -0.0967 
     57 S57       -51.0355  -25.2901    8.6265 S.3       14 UNK        -0.2604 
     58 C58       -52.2284  -26.2544    9.6044 C.3       14 UNK         0.0134 
     59 N         -49.3357  -25.4130   11.3230 N.am      6 UNK        -0.4116 
     60 C         -49.0411  -26.0237   12.4809 C.2       5 UNK         0.5034 
     61 O         -49.5417  -25.7265   13.5678 O.2       5 UNK        -0.5045 
     62 CA        -47.9742  -27.1246   12.4256 C.3       5 UNK         0.0224 
     63 CB        -48.6037  -28.4744   12.0441 C.3       5 UNK        -0.1978 
     64 N         -46.8981  -26.7856   11.4915 N.am      5 UNK        -0.4737 
     65 C         -45.9713  -25.8450   11.7216 C.2       4 UNK         0.5027 
     66 O         -45.9055  -25.1970   12.7648 O.2       4 UNK        -0.5211 
     67 CA        -44.9797  -25.5433   10.5843 C.3       4 UNK         0.0297 
     68 CB        -43.8325  -26.5655   10.5822 C.3       4 UNK        -0.1993 
     69 N         -45.6138  -25.5107    9.2640 N.am      4 UNK        -0.4486 
     70 C         -46.5480  -24.6231    8.8960 C.2       3 UNK         0.4961 
     71 O         -46.9402  -23.7057    9.6163 O.2       3 UNK        -0.5105 
     72 CA        -47.1881  -24.8076    7.5091 C.3       3 UNK         0.0299 
     73 CB        -46.3741  -24.0634    6.4394 C.3       3 UNK        -0.1972 
     74 N         -47.4080  -26.1945    7.0768 N.am      3 UNK        -0.4305 
     75 C         -47.9903  -27.1671    7.7927 C.2       2 UNK         0.5006 
     76 O         -48.2601  -27.0811    8.9908 O.2       2 UNK        -0.5106 
     77 CA        -48.4192  -28.4149    7.0122 C.3       2 UNK         0.0296 
     78 CB        -48.5448  -29.6530    7.9166 C.3       2 UNK        -0.2002 
     79 N         -49.7179  -28.1130    6.4149 N.am      2 UNK        -0.4032 
     80 C         -49.8777  -27.5744    5.1994 C.2       1 UNK         0.5000 
     81 O         -48.9706  -27.4846    4.3658 O.2       1 UNK        -0.5238 
     82 H82       -49.7037  -23.4570    2.7021 H         1 UNK         0.0889 
     83 H83       -51.2621  -22.8408    3.2590 H         1 UNK         0.0889 
     84 H84       -51.2017  -24.1568    2.0847 H         1 UNK         0.0889 
     85 H85       -51.6330  -26.1450    3.0002 H         1 UNK         0.3028 
     86 H86       -51.6841  -26.6278    5.8056 H         1 UNK         0.0864 
     87 H87       -51.9972  -28.4516    3.3612 H         1 UNK         0.0720 
     88 H88       -52.0913  -29.0855    4.9766 H         1 UNK         0.0720 
     89 H89       -55.6171  -28.2839    6.1324 H         1 UNK         0.0814 
     90 H90       -54.8004  -29.6765    5.4726 H         1 UNK         0.0814 
     91 H91       -53.8560  -26.5762    7.4434 H         1 UNK         0.1469 
     92 H92       -51.3745  -28.7878   10.1556 H         1 UNK         0.1381 
     93 H93       -53.4370  -30.8196    6.9965 H         1 UNK         0.1206 
     94 H94       -50.7238  -31.3169    8.8908 H         1 UNK         0.0813 
     95 H95       -52.2305  -32.1144    8.5369 H         1 UNK         0.0813 
     96 H96       -54.1354  -32.6154   11.4982 H         1 UNK         0.0638 
     97 H97       -54.2746  -31.7433   10.0098 H         1 UNK         0.0638 
     98 H98       -53.6663  -29.6700   11.8786 H         1 UNK         0.0568 
     99 H99       -56.2192  -28.7912    9.4547 H         1 UNK         0.3450 
    100 H100      -54.5230  -29.2033    9.4934 H         1 UNK         0.3450 
    101 H101      -55.7650  -30.4962   13.3801 H         1 UNK         0.2987 
    102 H102      -55.6542  -31.8893   15.4503 H         1 UNK         0.0766 
    103 H103      -54.4505  -31.8653   17.6433 H         1 UNK         0.0798 
    104 H104      -52.9764  -31.3315   16.8378 H         1 UNK         0.0798 
    105 H105      -53.6583  -32.9052   16.4698 H         1 UNK         0.0798 
    106 H106      -56.2553  -29.7912   15.8711 H         1 UNK         0.3198 
    107 H107      -56.2027  -27.5804   15.5817 H         1 UNK         0.0843 
    108 H108      -54.5866  -26.8993   18.1078 H         1 UNK         0.0831 
    109 H109      -56.1064  -27.7830   18.0833 H         1 UNK         0.0831 
    110 H110      -56.0699  -26.0978   17.5900 H         1 UNK         0.0831 
    111 H111      -54.1016  -25.6813   15.9949 H         1 UNK         0.3133 
    112 H112      -52.5723  -25.8498   12.8317 H         1 UNK         0.0566 
    113 H113      -53.0849  -23.3946   12.7332 H         1 UNK         0.0814 
    114 H114      -54.4681  -24.3792   12.2839 H         1 UNK         0.0814 
    115 H115      -54.4101  -23.6280   13.8690 H         1 UNK         0.0814 
    116 H116      -51.1351  -25.4049   14.3973 H         1 UNK         0.3091 
    117 H117      -51.1232  -23.4500   17.3590 H         1 UNK         0.0702 
    118 H118      -51.9312  -25.6790   18.2035 H         1 UNK         0.0785 
    119 H119      -50.7804  -26.4937   17.1537 H         1 UNK         0.0785 
    120 H120      -50.2111  -25.4724   18.4737 H         1 UNK         0.0785 
    121 H121      -49.6099  -24.5993   15.1249 H         1 UNK         0.2998 
    122 H122      -46.5724  -23.0958   16.3781 H         1 UNK         0.0697 
    123 H123      -47.2948  -25.8995   15.3872 H         1 UNK         0.0825 
    124 H124      -46.5580  -25.5289   16.9383 H         1 UNK         0.0825 
    125 H125      -45.6774  -25.1994   15.4568 H         1 UNK         0.0825 
    126 H126      -47.1692  -23.9759   13.7635 H         1 UNK         0.3029 
    127 H127      -48.2946  -20.7960   12.5121 H         1 UNK         0.0897 
    128 H128      -46.3645  -21.2106   11.0132 H         1 UNK         0.0792 
    129 H129      -45.7231  -22.4221   12.1198 H         1 UNK         0.0792 
    130 H130      -45.7940  -20.7324   12.6047 H         1 UNK         0.0792 
    131 H131      -47.8575  -23.2953   11.2068 H         1 UNK         0.3086 
    132 H132      -51.1823  -24.5528   11.6579 H         1 UNK         0.0583 
    133 H133      -51.3666  -23.1648    9.6840 H         1 UNK         0.1020 
    134 H134      -49.7003  -23.4157    9.2526 H         1 UNK         0.1020 
    135 H135      -51.8105  -26.4917   10.5820 H         1 UNK         0.0694 
    136 H136      -53.1272  -25.6615    9.7795 H         1 UNK         0.0694 
    137 H137      -48.9087  -25.7619   10.4707 H         1 UNK         0.2989 
    138 H138      -47.5428  -27.2233   13.4235 H         1 UNK         0.1055 
    139 H139      -49.3713  -28.7626   12.7637 H         1 UNK         0.0806 
    140 H140      -47.8586  -29.2698   12.0297 H         1 UNK         0.0806 
    141 H141      -49.0773  -28.4424   11.0632 H         1 UNK         0.0806 
    142 H142      -46.9715  -27.1800   10.5599 H         1 UNK         0.3061 
    143 H143      -44.5548  -24.5549   10.7730 H         1 UNK         0.0734 
    144 H144      -43.0760  -26.3126    9.8391 H         1 UNK         0.0832 
    145 H145      -43.3344  -26.5924   11.5525 H         1 UNK         0.0832 
    146 H146      -44.1884  -27.5748   10.3713 H         1 UNK         0.0832 
    147 H147      -45.3643  -26.2396    8.6117 H         1 UNK         0.3156 
    148 H148      -48.1755  -24.3447    7.5536 H         1 UNK         0.0589 
    149 H149      -45.3949  -24.5188    6.2867 H         1 UNK         0.0808 
    150 H150      -46.8955  -24.0533    5.4818 H         1 UNK         0.0808 
    151 H151      -46.2102  -23.0234    6.7258 H         1 UNK         0.0808 
    152 H152      -47.2680  -26.3710    6.0914 H         1 UNK         0.3098 
    153 H153      -47.6748  -28.6300    6.2425 H         1 UNK         0.0720 
    154 H154      -48.8766  -30.5235    7.3509 H         1 UNK         0.0791 
    155 H155      -49.2503  -29.4907    8.7311 H         1 UNK         0.0791 
    156 H156      -47.5837  -29.9031    8.3671 H         1 UNK         0.0791 
    157 H157      -50.5061  -28.1223    7.0494 H         1 UNK         0.3028 
@<TRIPOS>BOND
     1    1    2 1    
     2    1   82 1    
     3    1   83 1    
     4    1   84 1    
     5    2    3 2    
     6    2    4 am   BACKBONE|DICT|INTERRES
     7    4    5 1    
     8    4   85 1    
     9    5    6 1    
    10    5   80 1    
    11    5   86 1    
    12    6    7 1    
    13    6   87 1    
    14    6   88 1    
    15    7    8 1    
    16    8    9 1    
    17    8   89 1    
    18    8   90 1    
    19    9   10 ar   
    20    9   14 ar   
    21   10   11 ar   
    22   10   91 1    
    23   11   12 ar   
    24   11   58 1    
    25   12   13 ar   
    26   12   92 1    
    27   13   14 ar   
    28   13   15 1    
    29   14   93 1    
    30   15   16 1    
    31   15   94 1    
    32   15   95 1    
    33   16   17 1    
    34   17   18 1    
    35   17   96 1    
    36   17   97 1    
    37   18   19 1    
    38   18   22 1    
    39   18   98 1    
    40   19   20 am   BACKBONE|DICT|INTERRES
    41   19   21 2    
    42   20   99 1    
    43   20  100 1    
    44   22   23 am   BACKBONE|DICT|INTERRES
    45   22  101 1    
    46   23   24 2    
    47   23   25 1    
    48   25   26 1    
    49   25   27 1    
    50   25  102 1    
    51   26  103 1    
    52   26  104 1    
    53   26  105 1    
    54   27   28 am   BACKBONE|DICT|INTERRES
    55   27  106 1    
    56   28   29 2    
    57   28   30 1    
    58   30   31 1    
    59   30   32 1    
    60   30  107 1    
    61   31  108 1    
    62   31  109 1    
    63   31  110 1    
    64   32   33 am   BACKBONE|DICT|INTERRES
    65   32  111 1    
    66   33   34 2    
    67   33   35 1    
    68   35   36 1    
    69   35   37 1    
    70   35  112 1    
    71   36  113 1    
    72   36  114 1    
    73   36  115 1    
    74   37   38 am   BACKBONE|DICT|INTERRES
    75   37  116 1    
    76   38   39 2    
    77   38   40 1    
    78   40   41 1    
    79   40   42 1    
    80   40  117 1    
    81   41  118 1    
    82   41  119 1    
    83   41  120 1    
    84   42   43 am   BACKBONE|DICT|INTERRES
    85   42  121 1    
    86   43   44 2    
    87   43   45 1    
    88   45   46 1    
    89   45   47 1    
    90   45  122 1    
    91   46  123 1    
    92   46  124 1    
    93   46  125 1    
    94   47   48 am   BACKBONE|DICT|INTERRES
    95   47  126 1    
    96   48   49 2    
    97   48   50 1    
    98   50   51 1    
    99   50   52 1    
   100   50  127 1    
   101   51  128 1    
   102   51  129 1    
   103   51  130 1    
   104   52   53 am   BACKBONE|DICT|INTERRES
   105   52  131 1    
   106   53   54 2    
   107   53   55 1    
   108   55   56 1    
   109   55   59 1    
   110   55  132 1    
   111   56   57 1    
   112   56  133 1    
   113   56  134 1    
   114   57   58 1    
   115   58  135 1    
   116   58  136 1    
   117   59   60 am   BACKBONE|DICT|INTERRES
   118   59  137 1    
   119   60   61 2    
   120   60   62 1    
   121   62   63 1    
   122   62   64 1    
   123   62  138 1    
   124   63  139 1    
   125   63  140 1    
   126   63  141 1    
   127   64   65 am   BACKBONE|DICT|INTERRES
   128   64  142 1    
   129   65   66 2    
   130   65   67 1    
   131   67   68 1    
   132   67   69 1    
   133   67  143 1    
   134   68  144 1    
   135   68  145 1    
   136   68  146 1    
   137   69   70 am   BACKBONE|DICT|INTERRES
   138   69  147 1    
   139   70   71 2    
   140   70   72 1    
   141   72   73 1    
   142   72   74 1    
   143   72  148 1    
   144   73  149 1    
   145   73  150 1    
   146   73  151 1    
   147   74   75 am   BACKBONE|DICT|INTERRES
   148   74  152 1    
   149   75   76 2    
   150   75   77 1    
   151   77   78 1    
   152   77   79 1    
   153   77  153 1    
   154   78  154 1    
   155   78  155 1    
   156   78  156 1    
   157   79   80 am   BACKBONE|DICT|INTERRES
   158   79  157 1    
   159   80   81 2    
@<TRIPOS>SUBSTRUCTURE
     1 UNK         1 GROUP             0       ****    0 ROOT    
