@<TRIPOS>MOLECULE
3R207
157   159    1
SMALL
USER_CHARGES


@<TRIPOS>ATOM
      1 CA        -50.4386  -21.8416    8.4865 C.3       0 UNK        -0.1975 
      2 C         -50.5026  -23.3551    8.6191 C.2       0 UNK         0.4852 
      3 O         -50.5775  -23.8614    9.7386 O.2       0 UNK        -0.5216 
      4 N         -50.4513  -24.0764    7.4933 N.am      1 UNK        -0.4461 
      5 CA        -50.5273  -25.5377    7.4354 C.3       1 UNK         0.0864 
      6 C6        -51.6450  -26.0221    6.4679 C.3       14 UNK        -0.0898 
      7 S7        -53.3067  -25.5834    7.0883 S.3       14 UNK        -0.2598 
      8 C8        -54.2391  -27.1451    6.8686 C.3       14 UNK         0.0286 
      9 C9        -53.8166  -28.3318    7.7418 C.ar      14 UNK        -0.0844 
     10 C10       -52.8258  -28.2406    8.7267 C.ar      14 UNK        -0.0881 
     11 C11       -52.4326  -29.3586    9.4651 C.ar      14 UNK        -0.0643 
     12 C12       -53.0726  -30.5790    9.2490 C.ar      14 UNK        -0.0930 
     13 C13       -54.1143  -30.6758    8.3219 C.ar      14 UNK        -0.0827 
     14 C14       -54.4623  -29.5586    7.5549 C.ar      14 UNK        -0.1249 
     15 C15       -54.9039  -31.9702    8.2020 C.3       14 UNK         0.0141 
     16 S16       -55.7244  -32.3976    9.7757 S.3       14 UNK        -0.2313 
     17 C17       -56.8692  -30.9923   10.0198 C.3       14 UNK        -0.0915 
     18 CA        -56.2662  -29.7957   10.8116 C.3       13 UNK         0.0968 
     19 C         -57.3372  -28.6940   11.0304 C.2       13 UNK         0.5732 
     20 N         -57.3898  -27.6948   10.1599 N.am      13 UNK        -0.7310 
     21 O         -58.1503  -28.7668   11.9500 O.2       13 UNK        -0.5035 
     22 N         -55.6172  -30.2216   12.0596 N.am      13 UNK        -0.4233 
     23 C         -54.8563  -29.4351   12.8304 C.2       13 UNK         0.4989 
     24 O         -54.5943  -28.2576   12.5775 O.2       13 UNK        -0.4996 
     25 CA        -54.2265  -30.1049   14.0635 C.3       12 UNK         0.0216 
     26 CB        -52.8267  -30.6436   13.7222 C.3       12 UNK        -0.1964 
     27 N         -54.1125  -29.1842   15.1954 N.am      12 UNK        -0.4276 
     28 C         -55.1393  -28.6832   15.8947 C.2       12 UNK         0.5020 
     29 O         -56.3136  -28.9917   15.6832 O.2       12 UNK        -0.5489 
     30 CA        -54.8155  -27.7056   17.0466 C.3       11 UNK         0.0294 
     31 CB        -55.5924  -28.0723   18.3247 C.3       11 UNK        -0.2019 
     32 N         -53.3863  -27.6301   17.3755 N.am      11 UNK        -0.4493 
     33 C         -52.4898  -26.8672   16.7387 C.2       11 UNK         0.4932 
     34 O         -52.7722  -26.1310   15.7944 O.2       11 UNK        -0.5029 
     35 CA        -51.0414  -26.9758   17.2329 C.3       10 UNK         0.0280 
     36 CB        -50.4623  -28.3795   16.9706 C.3       10 UNK        -0.1976 
     37 N         -50.2088  -25.9862   16.5531 N.am      10 UNK        -0.4242 
     38 C         -49.2281  -25.2764   17.1225 C.2       10 UNK         0.5072 
     39 O         -48.9170  -25.3705   18.3112 O.2       10 UNK        -0.5224 
     40 CA        -48.4364  -24.3093   16.2245 C.3       9 UNK         0.0343 
     41 CB        -47.2149  -25.0230   15.6229 C.3       9 UNK        -0.2003 
     42 N         -49.2215  -23.7144   15.1417 N.am      9 UNK        -0.4272 
     43 C         -50.1870  -22.7971   15.3033 C.2       9 UNK         0.4988 
     44 O         -50.5478  -22.3645   16.3982 O.2       9 UNK        -0.5108 
     45 CA        -50.8592  -22.2709   14.0255 C.3       8 UNK         0.0248 
     46 CB        -49.9618  -21.2459   13.3129 C.3       8 UNK        -0.2001 
     47 N         -51.1619  -23.3788   13.1209 N.am      8 UNK        -0.4140 
     48 C         -52.3216  -24.0510   13.1161 C.2       8 UNK         0.5028 
     49 O         -53.3249  -23.6770   13.7260 O.2       8 UNK        -0.5428 
     50 CA        -52.3847  -25.3577   12.3044 C.3       7 UNK         0.0264 
     51 CB        -53.3476  -25.2304   11.1110 C.3       7 UNK        -0.1988 
     52 N         -51.0653  -25.8018   11.8388 N.am      7 UNK        -0.4454 
     53 C         -50.2210  -26.5322   12.5839 C.2       7 UNK         0.5027 
     54 O         -50.4760  -26.9034   13.7283 O.2       7 UNK        -0.5083 
     55 CA        -48.8478  -26.9045   11.9846 C.3       6 UNK         0.0844 
     56 C56       -48.8359  -28.3389   11.3986 C.3       14 UNK        -0.0967 
     57 S57       -49.8086  -28.5420    9.8685 S.3       14 UNK        -0.2604 
     58 C58       -51.3587  -29.2307   10.5337 C.3       14 UNK         0.0134 
     59 N         -48.2918  -25.9053   11.0672 N.am      6 UNK        -0.4116 
     60 C         -47.9634  -24.6538   11.4190 C.2       5 UNK         0.5034 
     61 O         -48.2129  -24.1723   12.5260 O.2       5 UNK        -0.5045 
     62 CA        -47.2361  -23.8123   10.3564 C.3       5 UNK         0.0224 
     63 CB        -46.6837  -22.4755   10.8951 C.3       5 UNK        -0.1978 
     64 N         -46.2106  -24.5862    9.6530 N.am      5 UNK        -0.4737 
     65 C         -45.0417  -25.0370   10.1298 C.2       4 UNK         0.5027 
     66 O         -44.6350  -24.8300   11.2731 O.2       4 UNK        -0.5211 
     67 CA        -44.1747  -25.8788    9.1732 C.3       4 UNK         0.0297 
     68 CB        -44.1828  -27.3533    9.6100 C.3       4 UNK        -0.1993 
     69 N         -44.5968  -25.8071    7.7716 N.am      4 UNK        -0.4486 
     70 C         -44.4975  -24.7496    6.9572 C.2       3 UNK         0.4961 
     71 O         -43.9582  -23.6918    7.2818 O.2       3 UNK        -0.5105 
     72 CA        -45.1313  -24.8676    5.5537 C.3       3 UNK         0.0299 
     73 CB        -44.0780  -25.2846    4.5085 C.3       3 UNK        -0.1972 
     74 N         -46.3350  -25.7174    5.4750 N.am      3 UNK        -0.4305 
     75 C         -46.4438  -27.0403    5.6749 C.2       2 UNK         0.5006 
     76 O         -45.4835  -27.7636    5.9453 O.2       2 UNK        -0.5106 
     77 CA        -47.8552  -27.6587    5.5987 C.3       2 UNK         0.0296 
     78 CB        -47.9518  -28.9731    6.4042 C.3       2 UNK        -0.2002 
     79 N         -48.9632  -26.7702    5.9817 N.am      2 UNK        -0.4032 
     80 C         -49.1277  -26.1167    7.1442 C.2       1 UNK         0.5000 
     81 O         -48.2409  -25.9868    7.9929 O.2       1 UNK        -0.5238 
     82 H82       -50.3491  -21.5253    7.4476 H         1 UNK         0.0889 
     83 H83       -49.5818  -21.4532    9.0364 H         1 UNK         0.0889 
     84 H84       -51.3408  -21.3939    8.9023 H         1 UNK         0.0889 
     85 H85       -50.3602  -23.6046    6.6049 H         1 UNK         0.3028 
     86 H86       -50.7671  -25.9247    8.4252 H         1 UNK         0.0864 
     87 H87       -51.6048  -27.1056    6.3409 H         1 UNK         0.0720 
     88 H88       -51.5241  -25.5856    5.4749 H         1 UNK         0.0720 
     89 H89       -55.2914  -26.9344    7.0637 H         1 UNK         0.0814 
     90 H90       -54.1761  -27.4370    5.8192 H         1 UNK         0.0814 
     91 H91       -52.3439  -27.3013    8.9343 H         1 UNK         0.1469 
     92 H92       -52.8024  -31.4427    9.8409 H         1 UNK         0.1381 
     93 H93       -55.2579  -29.6365    6.8262 H         1 UNK         0.1206 
     94 H94       -55.6532  -31.9044    7.4116 H         1 UNK         0.0813 
     95 H95       -54.2270  -32.7782    7.9215 H         1 UNK         0.0813 
     96 H96       -57.7466  -31.3809   10.5402 H         1 UNK         0.0638 
     97 H97       -57.2232  -30.6587    9.0427 H         1 UNK         0.0638 
     98 H98       -55.4797  -29.3490   10.2051 H         1 UNK         0.0568 
     99 H99       -56.7307  -27.6330    9.4006 H         1 UNK         0.3450 
    100 H100      -58.0908  -26.9805   10.2765 H         1 UNK         0.3450 
    101 H101      -55.7794  -31.1791   12.3317 H         1 UNK         0.2987 
    102 H102      -54.8588  -30.9407   14.3709 H         1 UNK         0.0766 
    103 H103      -52.4003  -31.1985   14.5581 H         1 UNK         0.0798 
    104 H104      -52.1368  -29.8373   13.4693 H         1 UNK         0.0798 
    105 H105      -52.8637  -31.3226   12.8689 H         1 UNK         0.0798 
    106 H106      -53.1915  -28.8267   15.3983 H         1 UNK         0.3198 
    107 H107      -55.1531  -26.7186   16.7223 H         1 UNK         0.0843 
    108 H108      -55.3324  -29.0691   18.6830 H         1 UNK         0.0831 
    109 H109      -56.6689  -28.0607   18.1485 H         1 UNK         0.0831 
    110 H110      -55.3942  -27.3626   19.1282 H         1 UNK         0.0831 
    111 H111      -53.0707  -28.2183   18.1343 H         1 UNK         0.3133 
    112 H112      -51.0496  -26.7829   18.3077 H         1 UNK         0.0566 
    113 H113      -49.4307  -28.4503   17.3159 H         1 UNK         0.0814 
    114 H114      -51.0267  -29.1524   17.4931 H         1 UNK         0.0814 
    115 H115      -50.4730  -28.6264   15.9080 H         1 UNK         0.0814 
    116 H116      -50.4260  -25.8570   15.5696 H         1 UNK         0.3091 
    117 H117      -48.0750  -23.4963   16.8578 H         1 UNK         0.0702 
    118 H118      -46.6013  -24.3369   15.0384 H         1 UNK         0.0785 
    119 H119      -47.5115  -25.8443   14.9697 H         1 UNK         0.0785 
    120 H120      -46.5801  -25.4403   16.4058 H         1 UNK         0.0785 
    121 H121      -48.9382  -23.9617   14.1959 H         1 UNK         0.2998 
    122 H122      -51.7823  -21.7622   14.3116 H         1 UNK         0.0697 
    123 H123      -48.9878  -21.6629   13.0595 H         1 UNK         0.0825 
    124 H124      -49.7859  -20.3777   13.9492 H         1 UNK         0.0825 
    125 H125      -50.4227  -20.8867   12.3925 H         1 UNK         0.0825 
    126 H126      -50.3937  -23.7428   12.5715 H         1 UNK         0.3029 
    127 H127      -52.7975  -26.1180   12.9722 H         1 UNK         0.0897 
    128 H128      -53.4990  -26.1935   10.6264 H         1 UNK         0.0792 
    129 H129      -52.9917  -24.5227   10.3633 H         1 UNK         0.0792 
    130 H130      -54.3298  -24.8887   11.4398 H         1 UNK         0.0792 
    131 H131      -50.7609  -25.4382   10.9398 H         1 UNK         0.3086 
    132 H132      -48.1619  -26.9246   12.8343 H         1 UNK         0.0583 
    133 H133      -47.8073  -28.6229   11.1706 H         1 UNK         0.1020 
    134 H134      -49.1706  -29.0608   12.1465 H         1 UNK         0.1020 
    135 H135      -51.1465  -30.1994   10.9887 H         1 UNK         0.0694 
    136 H136      -51.7450  -28.5900   11.3262 H         1 UNK         0.0694 
    137 H137      -48.1255  -26.2003   10.1112 H         1 UNK         0.2989 
    138 H138      -47.9719  -23.5667    9.5966 H         1 UNK         0.1055 
    139 H139      -47.4958  -21.8265   11.2223 H         1 UNK         0.0806 
    140 H140      -46.1295  -21.9359   10.1272 H         1 UNK         0.0806 
    141 H141      -46.0217  -22.6214   11.7491 H         1 UNK         0.0806 
    142 H142      -46.4787  -24.9008    8.7274 H         1 UNK         0.3061 
    143 H143      -43.1526  -25.5007    9.2393 H         1 UNK         0.0734 
    144 H144      -43.5215  -27.9562    8.9874 H         1 UNK         0.0832 
    145 H145      -43.8405  -27.4588   10.6405 H         1 UNK         0.0832 
    146 H146      -45.1835  -27.7841    9.5528 H         1 UNK         0.0832 
    147 H147      -45.0030  -26.6482    7.3694 H         1 UNK         0.3156 
    148 H148      -45.4702  -23.8648    5.2889 H         1 UNK         0.0589 
    149 H149      -43.6630  -26.2714    4.7157 H         1 UNK         0.0808 
    150 H150      -44.5007  -25.3021    3.5040 H         1 UNK         0.0808 
    151 H151      -43.2441  -24.5814    4.4965 H         1 UNK         0.0808 
    152 H152      -47.1942  -25.2180    5.2930 H         1 UNK         0.3098 
    153 H153      -48.0129  -27.9048    4.5477 H         1 UNK         0.0720 
    154 H154      -48.9458  -29.4145    6.3300 H         1 UNK         0.0791 
    155 H155      -47.7380  -28.8112    7.4616 H         1 UNK         0.0791 
    156 H156      -47.2426  -29.7164    6.0378 H         1 UNK         0.0791 
    157 H157      -49.7394  -26.7650    5.3351 H         1 UNK         0.3028 
@<TRIPOS>BOND
     1    1    2 1    
     2    1   82 1    
     3    1   83 1    
     4    1   84 1    
     5    2    3 2    
     6    2    4 am   BACKBONE|DICT|INTERRES
     7    4    5 1    
     8    4   85 1    
     9    5    6 1    
    10    5   80 1    
    11    5   86 1    
    12    6    7 1    
    13    6   87 1    
    14    6   88 1    
    15    7    8 1    
    16    8    9 1    
    17    8   89 1    
    18    8   90 1    
    19    9   10 ar   
    20    9   14 ar   
    21   10   11 ar   
    22   10   91 1    
    23   11   12 ar   
    24   11   58 1    
    25   12   13 ar   
    26   12   92 1    
    27   13   14 ar   
    28   13   15 1    
    29   14   93 1    
    30   15   16 1    
    31   15   94 1    
    32   15   95 1    
    33   16   17 1    
    34   17   18 1    
    35   17   96 1    
    36   17   97 1    
    37   18   19 1    
    38   18   22 1    
    39   18   98 1    
    40   19   20 am   BACKBONE|DICT|INTERRES
    41   19   21 2    
    42   20   99 1    
    43   20  100 1    
    44   22   23 am   BACKBONE|DICT|INTERRES
    45   22  101 1    
    46   23   24 2    
    47   23   25 1    
    48   25   26 1    
    49   25   27 1    
    50   25  102 1    
    51   26  103 1    
    52   26  104 1    
    53   26  105 1    
    54   27   28 am   BACKBONE|DICT|INTERRES
    55   27  106 1    
    56   28   29 2    
    57   28   30 1    
    58   30   31 1    
    59   30   32 1    
    60   30  107 1    
    61   31  108 1    
    62   31  109 1    
    63   31  110 1    
    64   32   33 am   BACKBONE|DICT|INTERRES
    65   32  111 1    
    66   33   34 2    
    67   33   35 1    
    68   35   36 1    
    69   35   37 1    
    70   35  112 1    
    71   36  113 1    
    72   36  114 1    
    73   36  115 1    
    74   37   38 am   BACKBONE|DICT|INTERRES
    75   37  116 1    
    76   38   39 2    
    77   38   40 1    
    78   40   41 1    
    79   40   42 1    
    80   40  117 1    
    81   41  118 1    
    82   41  119 1    
    83   41  120 1    
    84   42   43 am   BACKBONE|DICT|INTERRES
    85   42  121 1    
    86   43   44 2    
    87   43   45 1    
    88   45   46 1    
    89   45   47 1    
    90   45  122 1    
    91   46  123 1    
    92   46  124 1    
    93   46  125 1    
    94   47   48 am   BACKBONE|DICT|INTERRES
    95   47  126 1    
    96   48   49 2    
    97   48   50 1    
    98   50   51 1    
    99   50   52 1    
   100   50  127 1    
   101   51  128 1    
   102   51  129 1    
   103   51  130 1    
   104   52   53 am   BACKBONE|DICT|INTERRES
   105   52  131 1    
   106   53   54 2    
   107   53   55 1    
   108   55   56 1    
   109   55   59 1    
   110   55  132 1    
   111   56   57 1    
   112   56  133 1    
   113   56  134 1    
   114   57   58 1    
   115   58  135 1    
   116   58  136 1    
   117   59   60 am   BACKBONE|DICT|INTERRES
   118   59  137 1    
   119   60   61 2    
   120   60   62 1    
   121   62   63 1    
   122   62   64 1    
   123   62  138 1    
   124   63  139 1    
   125   63  140 1    
   126   63  141 1    
   127   64   65 am   BACKBONE|DICT|INTERRES
   128   64  142 1    
   129   65   66 2    
   130   65   67 1    
   131   67   68 1    
   132   67   69 1    
   133   67  143 1    
   134   68  144 1    
   135   68  145 1    
   136   68  146 1    
   137   69   70 am   BACKBONE|DICT|INTERRES
   138   69  147 1    
   139   70   71 2    
   140   70   72 1    
   141   72   73 1    
   142   72   74 1    
   143   72  148 1    
   144   73  149 1    
   145   73  150 1    
   146   73  151 1    
   147   74   75 am   BACKBONE|DICT|INTERRES
   148   74  152 1    
   149   75   76 2    
   150   75   77 1    
   151   77   78 1    
   152   77   79 1    
   153   77  153 1    
   154   78  154 1    
   155   78  155 1    
   156   78  156 1    
   157   79   80 am   BACKBONE|DICT|INTERRES
   158   79  157 1    
   159   80   81 2    
@<TRIPOS>SUBSTRUCTURE
     1 UNK         1 GROUP             0       ****    0 ROOT    
