@<TRIPOS>MOLECULE
3R207
157   159    1
SMALL
USER_CHARGES


@<TRIPOS>ATOM
      1 CA        -55.1799  -25.6042    4.2483 C.3       0 UNK        -0.1975 
      2 C         -54.3236  -25.4728    5.4990 C.2       0 UNK         0.4852 
      3 O         -54.6264  -24.6481    6.3616 O.2       0 UNK        -0.5216 
      4 N         -53.2641  -26.2856    5.6050 N.am      1 UNK        -0.4461 
      5 CA        -52.3021  -26.2922    6.7118 C.3       1 UNK         0.0864 
      6 C6        -51.3213  -27.4863    6.6042 C.3       14 UNK        -0.0898 
      7 S7        -52.1742  -29.0862    6.7689 S.3       14 UNK        -0.2598 
      8 C8        -50.7818  -30.2026    7.1606 C.3       14 UNK         0.0286 
      9 C9        -50.4122  -30.2830    8.6430 C.ar      14 UNK        -0.0844 
     10 C10       -49.0762  -30.4867    9.0084 C.ar      14 UNK        -0.0881 
     11 C11       -48.7161  -30.6616   10.3496 C.ar      14 UNK        -0.0643 
     12 C12       -49.7072  -30.6258   11.3348 C.ar      14 UNK        -0.0930 
     13 C13       -51.0462  -30.4165   10.9899 C.ar      14 UNK        -0.0827 
     14 C14       -51.3891  -30.2397    9.6450 C.ar      14 UNK        -0.1249 
     15 C15       -52.1159  -30.3611   12.0732 C.3       14 UNK         0.0141 
     16 S16       -53.4978  -31.5060   11.7610 S.3       14 UNK        -0.2313 
     17 C17       -54.7235  -30.9347   12.9881 C.3       14 UNK        -0.0915 
     18 CA        -55.7599  -29.9550   12.3711 C.3       13 UNK         0.0968 
     19 C         -56.9991  -29.7357   13.2881 C.2       13 UNK         0.5732 
     20 N         -57.4734  -28.5124   13.5018 N.am      13 UNK        -0.7310 
     21 O         -57.5685  -30.7001   13.7945 O.2       13 UNK        -0.5035 
     22 N         -55.1222  -28.6908   11.9820 N.am      13 UNK        -0.4233 
     23 C         -55.1221  -28.1615   10.7532 C.2       13 UNK         0.4989 
     24 O         -55.6189  -28.7160    9.7717 O.2       13 UNK        -0.4996 
     25 CA        -54.4404  -26.7866   10.5771 C.3       12 UNK         0.0216 
     26 CB        -55.1526  -25.9163    9.5204 C.3       12 UNK        -0.1964 
     27 N         -54.2520  -26.0269   11.8220 N.am      12 UNK        -0.4276 
     28 C         -55.1942  -25.6152   12.6817 C.2       12 UNK         0.5020 
     29 O         -56.3975  -25.8490   12.5452 O.2       12 UNK        -0.5489 
     30 CA        -54.6821  -24.8791   13.9364 C.3       11 UNK         0.0294 
     31 CB        -55.8166  -24.5305   14.9223 C.3       11 UNK        -0.2019 
     32 N         -53.6119  -25.6012   14.6408 N.am      11 UNK        -0.4493 
     33 C         -53.6329  -26.8715   15.0755 C.2       11 UNK         0.4932 
     34 O         -54.5587  -27.6514   14.8510 O.2       11 UNK        -0.5029 
     35 CA        -52.4249  -27.3802   15.8861 C.3       10 UNK         0.0280 
     36 CB        -51.9800  -28.7708   15.4099 C.3       10 UNK        -0.1976 
     37 N         -51.2682  -26.4807   15.8566 N.am      10 UNK        -0.4242 
     38 C         -51.0563  -25.4818   16.7241 C.2       10 UNK         0.5072 
     39 O         -51.8399  -25.1757   17.6234 O.2       10 UNK        -0.5224 
     40 CA        -49.7547  -24.6808   16.5559 C.3       9 UNK         0.0343 
     41 CB        -48.5643  -25.4544   17.1457 C.3       9 UNK        -0.2003 
     42 N         -49.4688  -24.3301   15.1634 N.am      9 UNK        -0.4272 
     43 C         -50.2070  -23.4929   14.4189 C.2       9 UNK         0.4988 
     44 O         -51.2170  -22.9186   14.8265 O.2       9 UNK        -0.5108 
     45 CA        -49.7604  -23.2903   12.9607 C.3       8 UNK         0.0248 
     46 CB        -48.5147  -22.3934   12.8834 C.3       8 UNK        -0.2001 
     47 N         -49.5065  -24.5653   12.2885 N.am      8 UNK        -0.4140 
     48 C         -50.4540  -25.4821   12.0487 C.2       8 UNK         0.5028 
     49 O         -51.6515  -25.3082   12.2667 O.2       8 UNK        -0.5428 
     50 CA        -49.9987  -26.8315   11.4896 C.3       7 UNK         0.0264 
     51 CB        -49.9808  -26.7915    9.9598 C.3       7 UNK        -0.1988 
     52 N         -48.6827  -27.2216   11.9845 N.am      7 UNK        -0.4454 
     53 C         -48.4336  -27.6382   13.2322 C.2       7 UNK         0.5027 
     54 O         -49.2886  -27.7039   14.1147 O.2       7 UNK        -0.5083 
     55 CA        -46.9706  -27.9964   13.5609 C.3       6 UNK         0.0844 
     56 C56       -46.5824  -29.3933   13.0090 C.3       14 UNK        -0.0967 
     57 S57       -46.3402  -29.4542   11.1913 S.3       14 UNK        -0.2604 
     58 C58       -47.2662  -30.9517   10.7203 C.3       14 UNK         0.0134 
     59 N         -46.0335  -26.9561   13.1323 N.am      6 UNK        -0.4116 
     60 C         -46.0659  -25.6685   13.5021 C.2       5 UNK         0.5034 
     61 O         -46.8334  -25.2134   14.3495 O.2       5 UNK        -0.5045 
     62 CA        -45.1210  -24.7091   12.7546 C.3       5 UNK         0.0224 
     63 CB        -43.8075  -24.5381   13.5335 C.3       5 UNK        -0.1978 
     64 N         -44.8199  -25.1005   11.3696 N.am      5 UNK        -0.4737 
     65 C         -45.7281  -25.3387   10.4121 C.2       4 UNK         0.5027 
     66 O         -46.9433  -25.2773   10.6094 O.2       4 UNK        -0.5211 
     67 CA        -45.1824  -25.7181    9.0185 C.3       4 UNK         0.0297 
     68 CB        -44.0096  -26.7145    9.1090 C.3       4 UNK        -0.1993 
     69 N         -46.2153  -26.3100    8.1624 N.am      4 UNK        -0.4486 
     70 C         -47.2129  -25.6961    7.5114 C.2       3 UNK         0.4961 
     71 O         -48.0425  -26.3402    6.8683 O.2       3 UNK        -0.5105 
     72 CA        -47.3215  -24.1595    7.5186 C.3       3 UNK         0.0299 
     73 CB        -46.6317  -23.5621    6.2815 C.3       3 UNK        -0.1972 
     74 N         -48.7395  -23.8201    7.4874 N.am      3 UNK        -0.4305 
     75 C         -49.3853  -23.0346    8.3532 C.2       2 UNK         0.5006 
     76 O         -48.8218  -22.3496    9.2062 O.2       2 UNK        -0.5106 
     77 CA        -50.9254  -23.0117    8.2867 C.3       2 UNK         0.0296 
     78 CB        -51.4239  -21.8668    7.3831 C.3       2 UNK        -0.2002 
     79 N         -51.5621  -24.2936    7.9358 N.am      2 UNK        -0.4032 
     80 C         -51.5293  -24.9594    6.7703 C.2       1 UNK         0.5000 
     81 O         -50.9034  -24.5828    5.7765 O.2       1 UNK        -0.5238 
     82 H82       -56.2063  -25.8479    4.5210 H         1 UNK         0.0889 
     83 H83       -54.8121  -26.3839    3.5816 H         1 UNK         0.0889 
     84 H84       -55.1871  -24.6633    3.6989 H         1 UNK         0.0889 
     85 H85       -53.0660  -26.9393    4.8613 H         1 UNK         0.3028 
     86 H86       -52.8702  -26.4026    7.6371 H         1 UNK         0.0864 
     87 H87       -50.5495  -27.4314    7.3707 H         1 UNK         0.0720 
     88 H88       -50.7926  -27.4688    5.6491 H         1 UNK         0.0720 
     89 H89       -49.9166  -29.9081    6.5643 H         1 UNK         0.0814 
     90 H90       -51.0508  -31.2066    6.8306 H         1 UNK         0.0814 
     91 H91       -48.3136  -30.5374    8.2432 H         1 UNK         0.1469 
     92 H92       -49.4356  -30.7679   12.3711 H         1 UNK         0.1381 
     93 H93       -52.4274  -30.0936    9.3808 H         1 UNK         0.1206 
     94 H94       -52.4870  -29.3391   12.1396 H         1 UNK         0.0813 
     95 H95       -51.6880  -30.6100   13.0446 H         1 UNK         0.0813 
     96 H96       -54.2173  -30.4787   13.8399 H         1 UNK         0.0638 
     97 H97       -55.2183  -31.8280   13.3729 H         1 UNK         0.0638 
     98 H98       -56.1714  -30.4409   11.4851 H         1 UNK         0.0568 
     99 H99       -57.0286  -27.6948   13.0982 H         1 UNK         0.3450 
    100 H100      -58.2805  -28.3989   14.0928 H         1 UNK         0.3450 
    101 H101      -54.7606  -28.1444   12.7546 H         1 UNK         0.2987 
    102 H102      -53.4382  -27.0046   10.2064 H         1 UNK         0.0766 
    103 H103      -54.6335  -24.9707    9.3647 H         1 UNK         0.0798 
    104 H104      -56.1789  -25.6898    9.8105 H         1 UNK         0.0798 
    105 H105      -55.1962  -26.4213    8.5546 H         1 UNK         0.0798 
    106 H106      -53.2827  -25.7827   12.0463 H         1 UNK         0.3198 
    107 H107      -54.2445  -23.9429   13.5856 H         1 UNK         0.0843 
    108 H108      -56.3079  -25.4265   15.3037 H         1 UNK         0.0831 
    109 H109      -56.5811  -23.9203   14.4396 H         1 UNK         0.0831 
    110 H110      -55.4414  -23.9647   15.7750 H         1 UNK         0.0831 
    111 H111      -52.7743  -25.0637   14.8208 H         1 UNK         0.3133 
    112 H112      -52.7656  -27.4852   16.9180 H         1 UNK         0.0566 
    113 H113      -51.1335  -29.1390   15.9898 H         1 UNK         0.0814 
    114 H114      -52.7818  -29.5028   15.5100 H         1 UNK         0.0814 
    115 H115      -51.6810  -28.7425   14.3642 H         1 UNK         0.0814 
    116 H116      -50.5517  -26.6961   15.1668 H         1 UNK         0.3091 
    117 H117      -49.8642  -23.7499   17.1164 H         1 UNK         0.0702 
    118 H118      -47.6526  -24.8573   17.1183 H         1 UNK         0.0785 
    119 H119      -48.3725  -26.3787   16.5987 H         1 UNK         0.0785 
    120 H120      -48.7469  -25.7208   18.1876 H         1 UNK         0.0785 
    121 H121      -48.6267  -24.7341   14.7600 H         1 UNK         0.2998 
    122 H122      -50.5703  -22.7906   12.4248 H         1 UNK         0.0697 
    123 H123      -47.6846  -22.7965   13.4622 H         1 UNK         0.0825 
    124 H124      -48.7301  -21.3997   13.2779 H         1 UNK         0.0825 
    125 H125      -48.1769  -22.2675   11.8546 H         1 UNK         0.0825 
    126 H126      -48.5533  -24.7756   12.0148 H         1 UNK         0.3029 
    127 H127      -50.7172  -27.5890   11.8075 H         1 UNK         0.0897 
    128 H128      -49.3863  -25.9603    9.5806 H         1 UNK         0.0792 
    129 H129      -50.9929  -26.6830    9.5728 H         1 UNK         0.0792 
    130 H130      -49.5677  -27.7097    9.5453 H         1 UNK         0.0792 
    131 H131      -47.9077  -27.1189   11.3411 H         1 UNK         0.3086 
    132 H132      -46.9016  -28.0452   14.6497 H         1 UNK         0.0583 
    133 H133      -45.6459  -29.7100   13.4708 H         1 UNK         0.1020 
    134 H134      -47.3159  -30.1389   13.3198 H         1 UNK         0.1020 
    135 H135      -46.7580  -31.4103    9.8707 H         1 UNK         0.0694 
    136 H136      -47.2203  -31.6905   11.5217 H         1 UNK         0.0694 
    137 H137      -45.3784  -27.2255   12.4136 H         1 UNK         0.2989 
    138 H138      -45.6199  -23.7394   12.7112 H         1 UNK         0.1055 
    139 H139      -44.0009  -24.2254   14.5609 H         1 UNK         0.0806 
    140 H140      -43.1726  -23.7760   13.0811 H         1 UNK         0.0806 
    141 H141      -43.2390  -25.4680   13.5778 H         1 UNK         0.0806 
    142 H142      -43.8415  -25.1694   11.1280 H         1 UNK         0.3061 
    143 H143      -44.8104  -24.8069    8.5474 H         1 UNK         0.0734 
    144 H144      -44.2837  -27.6145    9.6612 H         1 UNK         0.0832 
    145 H145      -43.6773  -27.0237    8.1175 H         1 UNK         0.0832 
    146 H146      -43.1418  -26.2761    9.6025 H         1 UNK         0.0832 
    147 H147      -46.2127  -27.3184    8.1336 H         1 UNK         0.3156 
    148 H148      -46.8652  -23.7408    8.4141 H         1 UNK         0.0589 
    149 H149      -47.0578  -23.9504    5.3553 H         1 UNK         0.0808 
    150 H150      -46.7256  -22.4762    6.2632 H         1 UNK         0.0808 
    151 H151      -45.5668  -23.7971    6.2758 H         1 UNK         0.0808 
    152 H152      -49.2946  -24.3433    6.8145 H         1 UNK         0.3098 
    153 H153      -51.2663  -22.7939    9.3005 H         1 UNK         0.0720 
    154 H154      -52.5123  -21.8050    7.3859 H         1 UNK         0.0791 
    155 H155      -51.0975  -21.9892    6.3500 H         1 UNK         0.0791 
    156 H156      -51.0427  -20.9053    7.7296 H         1 UNK         0.0791 
    157 H157      -52.1070  -24.6977    8.6835 H         1 UNK         0.3028 
@<TRIPOS>BOND
     1    1    2 1    
     2    1   82 1    
     3    1   83 1    
     4    1   84 1    
     5    2    3 2    
     6    2    4 am   BACKBONE|DICT|INTERRES
     7    4    5 1    
     8    4   85 1    
     9    5    6 1    
    10    5   80 1    
    11    5   86 1    
    12    6    7 1    
    13    6   87 1    
    14    6   88 1    
    15    7    8 1    
    16    8    9 1    
    17    8   89 1    
    18    8   90 1    
    19    9   10 ar   
    20    9   14 ar   
    21   10   11 ar   
    22   10   91 1    
    23   11   12 ar   
    24   11   58 1    
    25   12   13 ar   
    26   12   92 1    
    27   13   14 ar   
    28   13   15 1    
    29   14   93 1    
    30   15   16 1    
    31   15   94 1    
    32   15   95 1    
    33   16   17 1    
    34   17   18 1    
    35   17   96 1    
    36   17   97 1    
    37   18   19 1    
    38   18   22 1    
    39   18   98 1    
    40   19   20 am   BACKBONE|DICT|INTERRES
    41   19   21 2    
    42   20   99 1    
    43   20  100 1    
    44   22   23 am   BACKBONE|DICT|INTERRES
    45   22  101 1    
    46   23   24 2    
    47   23   25 1    
    48   25   26 1    
    49   25   27 1    
    50   25  102 1    
    51   26  103 1    
    52   26  104 1    
    53   26  105 1    
    54   27   28 am   BACKBONE|DICT|INTERRES
    55   27  106 1    
    56   28   29 2    
    57   28   30 1    
    58   30   31 1    
    59   30   32 1    
    60   30  107 1    
    61   31  108 1    
    62   31  109 1    
    63   31  110 1    
    64   32   33 am   BACKBONE|DICT|INTERRES
    65   32  111 1    
    66   33   34 2    
    67   33   35 1    
    68   35   36 1    
    69   35   37 1    
    70   35  112 1    
    71   36  113 1    
    72   36  114 1    
    73   36  115 1    
    74   37   38 am   BACKBONE|DICT|INTERRES
    75   37  116 1    
    76   38   39 2    
    77   38   40 1    
    78   40   41 1    
    79   40   42 1    
    80   40  117 1    
    81   41  118 1    
    82   41  119 1    
    83   41  120 1    
    84   42   43 am   BACKBONE|DICT|INTERRES
    85   42  121 1    
    86   43   44 2    
    87   43   45 1    
    88   45   46 1    
    89   45   47 1    
    90   45  122 1    
    91   46  123 1    
    92   46  124 1    
    93   46  125 1    
    94   47   48 am   BACKBONE|DICT|INTERRES
    95   47  126 1    
    96   48   49 2    
    97   48   50 1    
    98   50   51 1    
    99   50   52 1    
   100   50  127 1    
   101   51  128 1    
   102   51  129 1    
   103   51  130 1    
   104   52   53 am   BACKBONE|DICT|INTERRES
   105   52  131 1    
   106   53   54 2    
   107   53   55 1    
   108   55   56 1    
   109   55   59 1    
   110   55  132 1    
   111   56   57 1    
   112   56  133 1    
   113   56  134 1    
   114   57   58 1    
   115   58  135 1    
   116   58  136 1    
   117   59   60 am   BACKBONE|DICT|INTERRES
   118   59  137 1    
   119   60   61 2    
   120   60   62 1    
   121   62   63 1    
   122   62   64 1    
   123   62  138 1    
   124   63  139 1    
   125   63  140 1    
   126   63  141 1    
   127   64   65 am   BACKBONE|DICT|INTERRES
   128   64  142 1    
   129   65   66 2    
   130   65   67 1    
   131   67   68 1    
   132   67   69 1    
   133   67  143 1    
   134   68  144 1    
   135   68  145 1    
   136   68  146 1    
   137   69   70 am   BACKBONE|DICT|INTERRES
   138   69  147 1    
   139   70   71 2    
   140   70   72 1    
   141   72   73 1    
   142   72   74 1    
   143   72  148 1    
   144   73  149 1    
   145   73  150 1    
   146   73  151 1    
   147   74   75 am   BACKBONE|DICT|INTERRES
   148   74  152 1    
   149   75   76 2    
   150   75   77 1    
   151   77   78 1    
   152   77   79 1    
   153   77  153 1    
   154   78  154 1    
   155   78  155 1    
   156   78  156 1    
   157   79   80 am   BACKBONE|DICT|INTERRES
   158   79  157 1    
   159   80   81 2    
@<TRIPOS>SUBSTRUCTURE
     1 UNK         1 GROUP             0       ****    0 ROOT    
