@<TRIPOS>MOLECULE
3R207
157   159    1
SMALL
USER_CHARGES


@<TRIPOS>ATOM
      1 CA        -53.5765  -27.4221    2.2468 C.3       0 UNK        -0.1975 
      2 C         -52.8930  -27.3691    3.6053 C.2       0 UNK         0.4852 
      3 O         -53.5249  -26.9932    4.5936 O.2       0 UNK        -0.5216 
      4 N         -51.6102  -27.7501    3.6639 N.am      1 UNK        -0.4461 
      5 CA        -50.7792  -27.6967    4.8686 C.3       1 UNK         0.0864 
      6 C6        -49.5067  -28.5632    4.6976 C.3       14 UNK        -0.0898 
      7 S7        -48.5662  -28.7875    6.2451 S.3       14 UNK        -0.2598 
      8 C8        -49.4068  -30.2192    6.9928 C.3       14 UNK         0.0286 
      9 C9        -49.9109  -29.8792    8.3862 C.ar      14 UNK        -0.0844 
     10 C10       -49.0838  -30.0677    9.4965 C.ar      14 UNK        -0.0881 
     11 C11       -49.5293  -29.7410   10.7818 C.ar      14 UNK        -0.0643 
     12 C12       -50.8240  -29.2398   10.9521 C.ar      14 UNK        -0.0930 
     13 C13       -51.6632  -29.0541    9.8490 C.ar      14 UNK        -0.0827 
     14 C14       -51.2011  -29.3748    8.5693 C.ar      14 UNK        -0.1249 
     15 C15       -53.0636  -28.4881   10.0251 C.3       14 UNK         0.0141 
     16 S16       -54.3193  -29.8027   10.0435 S.3       14 UNK        -0.2313 
     17 C17       -54.4063  -30.2130   11.8193 C.3       14 UNK        -0.0915 
     18 CA        -55.6430  -29.5609   12.4969 C.3       13 UNK         0.0968 
     19 C         -55.9309  -30.1438   13.9118 C.2       13 UNK         0.5732 
     20 N         -56.3337  -29.3485   14.8974 N.am      13 UNK        -0.7310 
     21 O         -55.8141  -31.3489   14.1218 O.2       13 UNK        -0.5035 
     22 N         -55.5247  -28.0969   12.5120 N.am      13 UNK        -0.4233 
     23 C         -56.3735  -27.2290   11.9512 C.2       13 UNK         0.4989 
     24 O         -57.3466  -27.5626   11.2723 O.2       13 UNK        -0.4996 
     25 CA        -56.0861  -25.7298   12.1927 C.3       12 UNK         0.0216 
     26 CB        -57.3476  -24.8528   12.0458 C.3       12 UNK        -0.1964 
     27 N         -55.4164  -25.4492   13.4707 N.am      12 UNK        -0.4276 
     28 C         -55.8409  -25.7799   14.6986 C.2       12 UNK         0.5020 
     29 O         -56.8836  -26.3942   14.9363 O.2       12 UNK        -0.5489 
     30 CA        -54.8963  -25.4137   15.8540 C.3       11 UNK         0.0294 
     31 CB        -55.6799  -24.8818   17.0666 C.3       11 UNK        -0.2019 
     32 N         -54.0332  -26.5139   16.2977 N.am      11 UNK        -0.4493 
     33 C         -53.3594  -27.4077   15.5569 C.2       11 UNK         0.4932 
     34 O         -53.4506  -27.5371   14.3354 O.2       11 UNK        -0.5029 
     35 CA        -52.3289  -28.2425   16.3287 C.3       10 UNK         0.0280 
     36 CB        -51.7977  -29.4322   15.5064 C.3       10 UNK        -0.1976 
     37 N         -51.2166  -27.3597   16.6686 N.am      10 UNK        -0.4242 
     38 C         -51.1691  -26.5436   17.7292 C.2       10 UNK         0.5072 
     39 O         -51.9926  -26.5612   18.6453 O.2       10 UNK        -0.5224 
     40 CA        -50.0579  -25.4855   17.7207 C.3       9 UNK         0.0343 
     41 CB        -48.6697  -26.1278   17.8867 C.3       9 UNK        -0.2003 
     42 N         -50.0984  -24.7050   16.4818 N.am      9 UNK        -0.4272 
     43 C         -50.9021  -23.6527   16.2642 C.2       9 UNK         0.4988 
     44 O         -51.6803  -23.2004   17.1041 O.2       9 UNK        -0.5108 
     45 CA        -50.8185  -22.9770   14.8828 C.3       8 UNK         0.0248 
     46 CB        -49.7335  -21.8883   14.8834 C.3       8 UNK        -0.2001 
     47 N         -50.5427  -23.9355   13.8118 N.am      8 UNK        -0.4140 
     48 C         -51.4724  -24.7284   13.2575 C.2       8 UNK         0.5028 
     49 O         -52.6806  -24.6060   13.4644 O.2       8 UNK        -0.5428 
     50 CA        -50.9944  -25.8413   12.3034 C.3       7 UNK         0.0264 
     51 CB        -51.3113  -25.4569   10.8502 C.3       7 UNK        -0.1988 
     52 N         -49.5673  -26.1658   12.4038 N.am      7 UNK        -0.4454 
     53 C         -48.9382  -26.6290   13.4944 C.2       7 UNK         0.5027 
     54 O         -49.5204  -26.9237   14.5360 O.2       7 UNK        -0.5083 
     55 CA        -47.3966  -26.7136   13.4632 C.3       6 UNK         0.0844 
     56 C56       -46.9045  -28.1818   13.4376 C.3       14 UNK        -0.0967 
     57 S57       -47.0715  -28.9824   11.8058 S.3       14 UNK        -0.2604 
     58 C58       -48.6142  -29.9368   11.9831 C.3       14 UNK         0.0134 
     59 N         -46.7698  -25.8946   12.4183 N.am      6 UNK        -0.4116 
     60 C         -46.8850  -24.5693   12.2660 C.2       5 UNK         0.5034 
     61 O         -47.5429  -23.8583   13.0278 O.2       5 UNK        -0.5045 
     62 CA        -46.2197  -23.9272   11.0343 C.3       5 UNK         0.0224 
     63 CB        -44.8939  -23.2407   11.4157 C.3       5 UNK        -0.1978 
     64 N         -46.0554  -24.8156    9.8691 N.am      5 UNK        -0.4737 
     65 C         -45.2396  -25.8725    9.7178 C.2       4 UNK         0.5027 
     66 O         -44.5147  -26.2975   10.6166 O.2       4 UNK        -0.5211 
     67 CA        -45.2494  -26.6144    8.3647 C.3       4 UNK         0.0297 
     68 CB        -45.8180  -28.0326    8.5299 C.3       4 UNK        -0.1993 
     69 N         -46.0017  -25.9265    7.3133 N.am      4 UNK        -0.4486 
     70 C         -45.5967  -24.8215    6.6725 C.2       3 UNK         0.4961 
     71 O         -44.4931  -24.3015    6.8379 O.2       3 UNK        -0.5105 
     72 CA        -46.5966  -24.1678    5.6992 C.3       3 UNK         0.0299 
     73 CB        -46.2740  -24.5740    4.2523 C.3       3 UNK        -0.1972 
     74 N         -48.0081  -24.4653    5.9711 N.am      3 UNK        -0.4305 
     75 C         -48.6781  -24.2125    7.1034 C.2       2 UNK         0.5006 
     76 O         -48.1605  -23.7140    8.1032 O.2       2 UNK        -0.5106 
     77 CA        -50.1627  -24.6181    7.1579 C.3       2 UNK         0.0296 
     78 CB        -51.0687  -23.4856    6.6376 C.3       2 UNK        -0.2002 
     79 N         -50.4775  -25.9067    6.5200 N.am      2 UNK        -0.4032 
     80 C         -50.4346  -26.2346    5.2196 C.2       1 UNK         0.5000 
     81 O         -50.0863  -25.4610    4.3230 O.2       1 UNK        -0.5238 
     82 H82       -52.9072  -27.7850    1.4670 H         1 UNK         0.0889 
     83 H83       -53.9215  -26.4284    1.9621 H         1 UNK         0.0889 
     84 H84       -54.4406  -28.0847    2.2872 H         1 UNK         0.0889 
     85 H85       -51.1341  -28.0160    2.8138 H         1 UNK         0.3028 
     86 H86       -51.3704  -28.1182    5.6836 H         1 UNK         0.0864 
     87 H87       -48.8394  -28.1220    3.9545 H         1 UNK         0.0720 
     88 H88       -49.7686  -29.5480    4.3072 H         1 UNK         0.0720 
     89 H89       -48.7089  -31.0566    7.0382 H         1 UNK         0.0814 
     90 H90       -50.2383  -30.5526    6.3704 H         1 UNK         0.0814 
     91 H91       -48.0828  -30.4541    9.3606 H         1 UNK         0.1469 
     92 H92       -51.1781  -28.9921   11.9429 H         1 UNK         0.1381 
     93 H93       -51.8521  -29.2363    7.7175 H         1 UNK         0.1206 
     94 H94       -53.2851  -27.8060    9.2031 H         1 UNK         0.0813 
     95 H95       -53.1322  -27.8925   10.9362 H         1 UNK         0.0813 
     96 H96       -53.4852  -29.9178   12.3246 H         1 UNK         0.0638 
     97 H97       -54.4546  -31.3010   11.8866 H         1 UNK         0.0638 
     98 H98       -56.5191  -29.8459   11.9125 H         1 UNK         0.0568 
     99 H99       -56.5295  -29.7522   15.7988 H         1 UNK         0.3450 
    100 H100      -56.4842  -28.3564   14.7480 H         1 UNK         0.3450 
    101 H101      -54.7740  -27.7410   13.1020 H         1 UNK         0.2987 
    102 H102      -55.3825  -25.4324   11.4137 H         1 UNK         0.0766 
    103 H103      -57.1169  -23.7980   12.1947 H         1 UNK         0.0798 
    104 H104      -58.1181  -25.1327   12.7652 H         1 UNK         0.0798 
    105 H105      -57.7811  -24.9496   11.0496 H         1 UNK         0.0798 
    106 H106      -54.4778  -25.0515   13.4010 H         1 UNK         0.3198 
    107 H107      -54.2407  -24.6088   15.5186 H         1 UNK         0.0843 
    108 H108      -56.2998  -25.6574   17.5183 H         1 UNK         0.0831 
    109 H109      -56.3412  -24.0643   16.7760 H         1 UNK         0.0831 
    110 H110      -55.0094  -24.4962   17.8350 H         1 UNK         0.0831 
    111 H111      -53.8149  -26.5124   17.2862 H         1 UNK         0.3133 
    112 H112      -52.7973  -28.6310   17.2353 H         1 UNK         0.0566 
    113 H113      -51.0841  -30.0225   16.0809 H         1 UNK         0.0814 
    114 H114      -52.6118  -30.0970   15.2143 H         1 UNK         0.0814 
    115 H115      -51.2998  -29.1049   14.5926 H         1 UNK         0.0814 
    116 H116      -50.5277  -27.2244   15.9281 H         1 UNK         0.3091 
    117 H117      -50.2213  -24.8172   18.5691 H         1 UNK         0.0702 
    118 H118      -47.8890  -25.3691   17.9422 H         1 UNK         0.0785 
    119 H119      -48.4240  -26.7988   17.0629 H         1 UNK         0.0785 
    120 H120      -48.6194  -26.7108   18.8073 H         1 UNK         0.0785 
    121 H121      -49.5446  -25.0559   15.7130 H         1 UNK         0.2998 
    122 H122      -51.7793  -22.4954   14.6877 H         1 UNK         0.0697 
    123 H123      -48.7429  -22.3028   15.0754 H         1 UNK         0.0825 
    124 H124      -49.9303  -21.1418   15.6542 H         1 UNK         0.0825 
    125 H125      -49.6965  -21.3653   13.9276 H         1 UNK         0.0825 
    126 H126      -49.5730  -24.0447   13.5344 H         1 UNK         0.3029 
    127 H127      -51.5569  -26.7397   12.5615 H         1 UNK         0.0897 
    128 H128      -52.3819  -25.2989   10.7123 H         1 UNK         0.0792 
    129 H129      -51.0060  -26.2378   10.1544 H         1 UNK         0.0792 
    130 H130      -50.8065  -24.5332   10.5646 H         1 UNK         0.0792 
    131 H131      -49.0032  -25.9672   11.5910 H         1 UNK         0.3086 
    132 H132      -47.0666  -26.2867   14.4126 H         1 UNK         0.0583 
    133 H133      -45.8449  -28.2026   13.6971 H         1 UNK         0.1020 
    134 H134      -47.3948  -28.7797   14.2089 H         1 UNK         0.1020 
    135 H135      -48.3687  -30.9950   12.0807 H         1 UNK         0.0694 
    136 H136      -49.1300  -29.6545   12.9019 H         1 UNK         0.0694 
    137 H137      -46.1658  -26.3852   11.7674 H         1 UNK         0.2989 
    138 H138      -46.9051  -23.1452   10.7019 H         1 UNK         0.1055 
    139 H139      -45.0538  -22.4940   12.1948 H         1 UNK         0.0806 
    140 H140      -44.4537  -22.7271   10.5608 H         1 UNK         0.0806 
    141 H141      -44.1590  -23.9503   11.7965 H         1 UNK         0.0806 
    142 H142      -46.6487  -24.5691    9.0811 H         1 UNK         0.3061 
    143 H143      -44.2101  -26.7014    8.0407 H         1 UNK         0.0734 
    144 H144      -45.7540  -28.5981    7.6003 H         1 UNK         0.0832 
    145 H145      -45.2630  -28.5931    9.2833 H         1 UNK         0.0832 
    146 H146      -46.8631  -28.0146    8.8418 H         1 UNK         0.0832 
    147 H147      -46.9176  -26.2926    7.0967 H         1 UNK         0.3156 
    148 H148      -46.4722  -23.0868    5.7881 H         1 UNK         0.0589 
    149 H149      -46.4165  -25.6439    4.0936 H         1 UNK         0.0808 
    150 H150      -46.9053  -24.0423    3.5400 H         1 UNK         0.0808 
    151 H151      -45.2381  -24.3413    4.0012 H         1 UNK         0.0808 
    152 H152      -48.5527  -24.8483    5.2014 H         1 UNK         0.3098 
    153 H153      -50.3987  -24.7566    8.2121 H         1 UNK         0.0720 
    154 H154      -52.1228  -23.7425    6.7425 H         1 UNK         0.0791 
    155 H155      -50.8817  -23.2592    5.5876 H         1 UNK         0.0791 
    156 H156      -50.9016  -22.5661    7.2003 H         1 UNK         0.0791 
    157 H157      -50.7198  -26.6432    7.1683 H         1 UNK         0.3028 
@<TRIPOS>BOND
     1    1    2 1    
     2    1   82 1    
     3    1   83 1    
     4    1   84 1    
     5    2    3 2    
     6    2    4 am   BACKBONE|DICT|INTERRES
     7    4    5 1    
     8    4   85 1    
     9    5    6 1    
    10    5   80 1    
    11    5   86 1    
    12    6    7 1    
    13    6   87 1    
    14    6   88 1    
    15    7    8 1    
    16    8    9 1    
    17    8   89 1    
    18    8   90 1    
    19    9   10 ar   
    20    9   14 ar   
    21   10   11 ar   
    22   10   91 1    
    23   11   12 ar   
    24   11   58 1    
    25   12   13 ar   
    26   12   92 1    
    27   13   14 ar   
    28   13   15 1    
    29   14   93 1    
    30   15   16 1    
    31   15   94 1    
    32   15   95 1    
    33   16   17 1    
    34   17   18 1    
    35   17   96 1    
    36   17   97 1    
    37   18   19 1    
    38   18   22 1    
    39   18   98 1    
    40   19   20 am   BACKBONE|DICT|INTERRES
    41   19   21 2    
    42   20   99 1    
    43   20  100 1    
    44   22   23 am   BACKBONE|DICT|INTERRES
    45   22  101 1    
    46   23   24 2    
    47   23   25 1    
    48   25   26 1    
    49   25   27 1    
    50   25  102 1    
    51   26  103 1    
    52   26  104 1    
    53   26  105 1    
    54   27   28 am   BACKBONE|DICT|INTERRES
    55   27  106 1    
    56   28   29 2    
    57   28   30 1    
    58   30   31 1    
    59   30   32 1    
    60   30  107 1    
    61   31  108 1    
    62   31  109 1    
    63   31  110 1    
    64   32   33 am   BACKBONE|DICT|INTERRES
    65   32  111 1    
    66   33   34 2    
    67   33   35 1    
    68   35   36 1    
    69   35   37 1    
    70   35  112 1    
    71   36  113 1    
    72   36  114 1    
    73   36  115 1    
    74   37   38 am   BACKBONE|DICT|INTERRES
    75   37  116 1    
    76   38   39 2    
    77   38   40 1    
    78   40   41 1    
    79   40   42 1    
    80   40  117 1    
    81   41  118 1    
    82   41  119 1    
    83   41  120 1    
    84   42   43 am   BACKBONE|DICT|INTERRES
    85   42  121 1    
    86   43   44 2    
    87   43   45 1    
    88   45   46 1    
    89   45   47 1    
    90   45  122 1    
    91   46  123 1    
    92   46  124 1    
    93   46  125 1    
    94   47   48 am   BACKBONE|DICT|INTERRES
    95   47  126 1    
    96   48   49 2    
    97   48   50 1    
    98   50   51 1    
    99   50   52 1    
   100   50  127 1    
   101   51  128 1    
   102   51  129 1    
   103   51  130 1    
   104   52   53 am   BACKBONE|DICT|INTERRES
   105   52  131 1    
   106   53   54 2    
   107   53   55 1    
   108   55   56 1    
   109   55   59 1    
   110   55  132 1    
   111   56   57 1    
   112   56  133 1    
   113   56  134 1    
   114   57   58 1    
   115   58  135 1    
   116   58  136 1    
   117   59   60 am   BACKBONE|DICT|INTERRES
   118   59  137 1    
   119   60   61 2    
   120   60   62 1    
   121   62   63 1    
   122   62   64 1    
   123   62  138 1    
   124   63  139 1    
   125   63  140 1    
   126   63  141 1    
   127   64   65 am   BACKBONE|DICT|INTERRES
   128   64  142 1    
   129   65   66 2    
   130   65   67 1    
   131   67   68 1    
   132   67   69 1    
   133   67  143 1    
   134   68  144 1    
   135   68  145 1    
   136   68  146 1    
   137   69   70 am   BACKBONE|DICT|INTERRES
   138   69  147 1    
   139   70   71 2    
   140   70   72 1    
   141   72   73 1    
   142   72   74 1    
   143   72  148 1    
   144   73  149 1    
   145   73  150 1    
   146   73  151 1    
   147   74   75 am   BACKBONE|DICT|INTERRES
   148   74  152 1    
   149   75   76 2    
   150   75   77 1    
   151   77   78 1    
   152   77   79 1    
   153   77  153 1    
   154   78  154 1    
   155   78  155 1    
   156   78  156 1    
   157   79   80 am   BACKBONE|DICT|INTERRES
   158   79  157 1    
   159   80   81 2    
@<TRIPOS>SUBSTRUCTURE
     1 UNK         1 GROUP             0       ****    0 ROOT    
