@<TRIPOS>MOLECULE
3R207
157   159    1
SMALL
USER_CHARGES


@<TRIPOS>ATOM
      1 CA        -52.5996  -30.5956    5.6054 C.3       0 UNK        -0.1975 
      2 C         -51.3290  -30.0475    6.2382 C.2       0 UNK         0.4852 
      3 O         -51.2809  -28.8670    6.5826 O.2       0 UNK        -0.5216 
      4 N         -50.3064  -30.8988    6.3979 N.am      1 UNK        -0.4461 
      5 CA        -48.9918  -30.5400    6.9387 C.3       1 UNK         0.0864 
      6 C6        -48.2113  -31.8146    7.3597 C.3       14 UNK        -0.0898 
      7 S7        -46.6018  -31.5235    8.1783 S.3       14 UNK        -0.2598 
      8 C8        -47.0667  -31.3763    9.9338 C.3       14 UNK         0.0286 
      9 C9        -47.7250  -30.0357   10.2191 C.ar      14 UNK        -0.0844 
     10 C10       -46.9497  -28.8728   10.2780 C.ar      14 UNK        -0.0881 
     11 C11       -47.5501  -27.6321   10.5099 C.ar      14 UNK        -0.0643 
     12 C12       -48.9384  -27.5621   10.6568 C.ar      14 UNK        -0.0930 
     13 C13       -49.7246  -28.7155   10.5991 C.ar      14 UNK        -0.0827 
     14 C14       -49.1080  -29.9546   10.4073 C.ar      14 UNK        -0.1249 
     15 C15       -51.2404  -28.6193   10.6989 C.3       14 UNK         0.0141 
     16 S16       -51.7617  -27.7863   12.2279 S.3       14 UNK        -0.2313 
     17 C17       -53.5212  -28.2478   12.3290 C.3       14 UNK        -0.0915 
     18 CA        -54.5098  -27.1401   11.8790 C.3       13 UNK         0.0968 
     19 C         -55.9759  -27.6402   12.0517 C.2       13 UNK         0.5732 
     20 N         -56.7730  -27.0917   12.9634 N.am      13 UNK        -0.7310 
     21 O         -56.3977  -28.5490   11.3405 O.2       13 UNK        -0.5035 
     22 N         -54.2355  -25.8404   12.5131 N.am      13 UNK        -0.4233 
     23 C         -54.7733  -24.6814   12.1038 C.2       13 UNK         0.4989 
     24 O         -55.4821  -24.5836   11.1005 O.2       13 UNK        -0.4996 
     25 CA        -54.5022  -23.4256   12.9622 C.3       12 UNK         0.0216 
     26 CB        -55.5812  -22.3379   12.7757 C.3       12 UNK        -0.1964 
     27 N         -54.3081  -23.7075   14.3902 N.am      12 UNK        -0.4276 
     28 C         -55.1372  -24.3672   15.2112 C.2       12 UNK         0.5020 
     29 O         -56.2325  -24.8278   14.8797 O.2       12 UNK        -0.5489 
     30 CA        -54.6066  -24.6198   16.6334 C.3       11 UNK         0.0294 
     31 CB        -55.6054  -24.1219   17.6916 C.3       11 UNK        -0.2019 
     32 N         -54.3223  -26.0396   16.8626 N.am      11 UNK        -0.4493 
     33 C         -53.5159  -26.8032   16.1128 C.2       11 UNK         0.4932 
     34 O         -52.8813  -26.3896   15.1378 O.2       11 UNK        -0.5029 
     35 CA        -53.4265  -28.2830   16.5032 C.3       10 UNK         0.0280 
     36 CB        -54.7621  -29.0068   16.2256 C.3       10 UNK        -0.1976 
     37 N         -52.3358  -28.8844   15.7410 N.am      10 UNK        -0.4242 
     38 C         -51.7904  -30.0898   15.9333 C.2       10 UNK         0.5072 
     39 O         -52.1539  -30.8789   16.8068 O.2       10 UNK        -0.5224 
     40 CA        -50.6385  -30.4882   14.9954 C.3       9 UNK         0.0343 
     41 CB        -51.1741  -31.2031   13.7439 C.3       9 UNK        -0.2003 
     42 N         -49.8024  -29.3521   14.5953 N.am      9 UNK        -0.4272 
     43 C         -48.8726  -28.7990   15.3877 C.2       9 UNK         0.4988 
     44 O         -48.6608  -29.1541   16.5480 O.2       9 UNK        -0.5108 
     45 CA        -48.0047  -27.6895   14.7748 C.3       8 UNK         0.0248 
     46 CB        -46.9206  -28.3032   13.8765 C.3       8 UNK        -0.2001 
     47 N         -48.7836  -26.6892   14.0356 N.am      8 UNK        -0.4140 
     48 C         -49.5041  -25.7320   14.6391 C.2       8 UNK         0.5028 
     49 O         -49.5827  -25.6263   15.8655 O.2       8 UNK        -0.5428 
     50 CA        -50.2386  -24.7123   13.7379 C.3       7 UNK         0.0264 
     51 CB        -50.7853  -23.5136   14.5422 C.3       7 UNK        -0.1988 
     52 N         -49.4746  -24.2079   12.5866 N.am      7 UNK        -0.4454 
     53 C         -48.2545  -23.6394   12.6012 C.2       7 UNK         0.5027 
     54 O         -47.5021  -23.6506   13.5761 O.2       7 UNK        -0.5083 
     55 CA        -47.8041  -22.8679   11.3363 C.3       6 UNK         0.0844 
     56 C56       -46.6830  -23.5824   10.5400 C.3       14 UNK        -0.0967 
     57 S57       -47.2478  -25.0251    9.5808 S.3       14 UNK        -0.2604 
     58 C58       -46.6981  -26.3802   10.6611 C.3       14 UNK         0.0134 
     59 N         -48.9261  -22.4520   10.4877 N.am      6 UNK        -0.4116 
     60 C         -49.7695  -21.4566   10.7955 C.2       5 UNK         0.5034 
     61 O         -49.6634  -20.7585   11.8045 O.2       5 UNK        -0.5045 
     62 CA        -50.9279  -21.1753    9.8238 C.3       5 UNK         0.0224 
     63 CB        -50.5650  -20.0111    8.8873 C.3       5 UNK        -0.1978 
     64 N         -51.3693  -22.3160    9.0144 N.am      5 UNK        -0.4737 
     65 C         -51.8906  -23.4567    9.4889 C.2       4 UNK         0.5027 
     66 O         -51.9027  -23.7619   10.6805 O.2       4 UNK        -0.5211 
     67 CA        -52.4842  -24.4126    8.4391 C.3       4 UNK         0.0297 
     68 CB        -53.8629  -23.9191    7.9710 C.3       4 UNK        -0.1993 
     69 N         -51.5997  -24.5539    7.2791 N.am      4 UNK        -0.4486 
     70 C         -50.4665  -25.2619    7.3134 C.2       3 UNK         0.4961 
     71 O         -50.1340  -25.9589    8.2720 O.2       3 UNK        -0.5105 
     72 CA        -49.5320  -25.1398    6.1033 C.3       3 UNK         0.0299 
     73 CB        -48.8781  -23.7419    6.0632 C.3       3 UNK        -0.1972 
     74 N         -48.5176  -26.1777    6.2415 N.am      3 UNK        -0.4305 
     75 C         -47.5947  -26.5492    5.3482 C.2       2 UNK         0.5006 
     76 O         -47.4612  -26.0375    4.2359 O.2       2 UNK        -0.5106 
     77 CA        -46.6708  -27.7064    5.7649 C.3       2 UNK         0.0296 
     78 CB        -45.4953  -27.1920    6.6117 C.3       2 UNK        -0.2002 
     79 N         -47.3943  -28.7350    6.5130 N.am      2 UNK        -0.4032 
     80 C         -48.2144  -29.6371    5.9576 C.2       1 UNK         0.5000 
     81 O         -48.3642  -29.7744    4.7394 O.2       1 UNK        -0.5238 
     82 H82       -52.8234  -30.0545    4.6864 H         1 UNK         0.0889 
     83 H83       -53.4408  -30.4726    6.2871 H         1 UNK         0.0889 
     84 H84       -52.5116  -31.6545    5.3628 H         1 UNK         0.0889 
     85 H85       -50.3976  -31.8469    6.0628 H         1 UNK         0.3028 
     86 H86       -49.1831  -29.9398    7.8259 H         1 UNK         0.0864 
     87 H87       -48.8267  -32.4187    8.0282 H         1 UNK         0.0720 
     88 H88       -48.0250  -32.4402    6.4849 H         1 UNK         0.0720 
     89 H89       -46.1690  -31.4731   10.5462 H         1 UNK         0.0814 
     90 H90       -47.7183  -32.2044   10.2170 H         1 UNK         0.0814 
     91 H91       -45.8773  -28.9395   10.1532 H         1 UNK         0.1469 
     92 H92       -49.4157  -26.6024   10.7997 H         1 UNK         0.1381 
     93 H93       -49.7089  -30.8522   10.3553 H         1 UNK         0.1206 
     94 H94       -51.6849  -29.6143   10.6551 H         1 UNK         0.0813 
     95 H95       -51.6214  -28.0660    9.8388 H         1 UNK         0.0813 
     96 H96       -53.6846  -29.1588   11.7509 H         1 UNK         0.0638 
     97 H97       -53.7178  -28.5204   13.3642 H         1 UNK         0.0638 
     98 H98       -54.3633  -27.0000   10.8063 H         1 UNK         0.0568 
     99 H99       -56.4569  -26.3255   13.5492 H         1 UNK         0.3450 
    100 H100      -57.7169  -27.4303   13.0539 H         1 UNK         0.3450 
    101 H101      -53.6790  -25.8682   13.3607 H         1 UNK         0.2987 
    102 H102      -53.5582  -23.0157   12.6022 H         1 UNK         0.0766 
    103 H103      -56.5687  -22.6976   13.0670 H         1 UNK         0.0798 
    104 H104      -55.3583  -21.4512   13.3689 H         1 UNK         0.0798 
    105 H105      -55.6434  -22.0202   11.7340 H         1 UNK         0.0798 
    106 H106      -53.4155  -23.4206   14.7647 H         1 UNK         0.3198 
    107 H107      -53.6716  -24.0721   16.7686 H         1 UNK         0.0843 
    108 H108      -56.5508  -24.6639   17.6419 H         1 UNK         0.0831 
    109 H109      -55.8299  -23.0642   17.5475 H         1 UNK         0.0831 
    110 H110      -55.2065  -24.2324   18.7001 H         1 UNK         0.0831 
    111 H111      -54.8209  -26.4754   17.6247 H         1 UNK         0.3133 
    112 H112      -53.1842  -28.3463   17.5657 H         1 UNK         0.0566 
    113 H113      -55.5714  -28.5823   16.8202 H         1 UNK         0.0814 
    114 H114      -55.0594  -28.9297   15.1801 H         1 UNK         0.0814 
    115 H115      -54.7095  -30.0653   16.4787 H         1 UNK         0.0814 
    116 H116      -51.9579  -28.2716   15.0270 H         1 UNK         0.3091 
    117 H117      -50.0088  -31.1994   15.5348 H         1 UNK         0.0702 
    118 H118      -50.3641  -31.5015   13.0781 H         1 UNK         0.0785 
    119 H119      -51.8611  -30.5760   13.1772 H         1 UNK         0.0785 
    120 H120      -51.7176  -32.1079   14.0190 H         1 UNK         0.0785 
    121 H121      -49.9238  -28.9984   13.6562 H         1 UNK         0.2998 
    122 H122      -47.4935  -27.1805   15.5952 H         1 UNK         0.0697 
    123 H123      -47.3534  -28.8612   13.0471 H         1 UNK         0.0825 
    124 H124      -46.3011  -29.0014   14.4412 H         1 UNK         0.0825 
    125 H125      -46.2544  -27.5421   13.4727 H         1 UNK         0.0825 
    126 H126      -48.7622  -26.7284   13.0272 H         1 UNK         0.3029 
    127 H127      -51.0999  -25.2356   13.3240 H         1 UNK         0.0897 
    128 H128      -49.9799  -22.9447   15.0081 H         1 UNK         0.0792 
    129 H129      -51.4500  -23.8475   15.3394 H         1 UNK         0.0792 
    130 H130      -51.3475  -22.8318   13.9041 H         1 UNK         0.0792 
    131 H131      -50.0144  -24.1326   11.7308 H         1 UNK         0.3086 
    132 H132      -47.3488  -21.9506   11.7169 H         1 UNK         0.0583 
    133 H133      -46.2481  -22.8764    9.8308 H         1 UNK         0.1020 
    134 H134      -45.8587  -23.8645   11.1982 H         1 UNK         0.1020 
    135 H135      -45.6481  -26.5902   10.4522 H         1 UNK         0.0694 
    136 H136      -46.7499  -26.0609   11.7015 H         1 UNK         0.0694 
    137 H137      -49.0849  -22.9921    9.6494 H         1 UNK         0.2989 
    138 H138      -51.7789  -20.8679   10.4358 H         1 UNK         0.1055 
    139 H139      -50.2569  -19.1322    9.4559 H         1 UNK         0.0806 
    140 H140      -51.4157  -19.7128    8.2742 H         1 UNK         0.0806 
    141 H141      -49.7425  -20.2713    8.2197 H         1 UNK         0.0806 
    142 H142      -51.3839  -22.1728    8.0157 H         1 UNK         0.3061 
    143 H143      -52.6148  -25.3890    8.9124 H         1 UNK         0.0734 
    144 H144      -53.7999  -22.9688    7.4398 H         1 UNK         0.0832 
    145 H145      -54.3377  -24.6435    7.3091 H         1 UNK         0.0832 
    146 H146      -54.5330  -23.7699    8.8173 H         1 UNK         0.0832 
    147 H147      -51.8285  -24.0252    6.4496 H         1 UNK         0.3156 
    148 H148      -50.1044  -25.3194    5.1914 H         1 UNK         0.0589 
    149 H149      -48.2897  -23.5497    6.9614 H         1 UNK         0.0808 
    150 H150      -48.2171  -23.6306    5.2040 H         1 UNK         0.0808 
    151 H151      -49.6275  -22.9537    5.9883 H         1 UNK         0.0808 
    152 H152      -48.5794  -26.6551    7.1348 H         1 UNK         0.3098 
    153 H153      -46.2635  -28.1554    4.8564 H         1 UNK         0.0720 
    154 H154      -44.7987  -27.9957    6.8511 H         1 UNK         0.0791 
    155 H155      -45.8329  -26.7517    7.5501 H         1 UNK         0.0791 
    156 H156      -44.9345  -26.4256    6.0751 H         1 UNK         0.0791 
    157 H157      -47.3046  -28.7183    7.5196 H         1 UNK         0.3028 
@<TRIPOS>BOND
     1    1    2 1    
     2    1   82 1    
     3    1   83 1    
     4    1   84 1    
     5    2    3 2    
     6    2    4 am   BACKBONE|DICT|INTERRES
     7    4    5 1    
     8    4   85 1    
     9    5    6 1    
    10    5   80 1    
    11    5   86 1    
    12    6    7 1    
    13    6   87 1    
    14    6   88 1    
    15    7    8 1    
    16    8    9 1    
    17    8   89 1    
    18    8   90 1    
    19    9   10 ar   
    20    9   14 ar   
    21   10   11 ar   
    22   10   91 1    
    23   11   12 ar   
    24   11   58 1    
    25   12   13 ar   
    26   12   92 1    
    27   13   14 ar   
    28   13   15 1    
    29   14   93 1    
    30   15   16 1    
    31   15   94 1    
    32   15   95 1    
    33   16   17 1    
    34   17   18 1    
    35   17   96 1    
    36   17   97 1    
    37   18   19 1    
    38   18   22 1    
    39   18   98 1    
    40   19   20 am   BACKBONE|DICT|INTERRES
    41   19   21 2    
    42   20   99 1    
    43   20  100 1    
    44   22   23 am   BACKBONE|DICT|INTERRES
    45   22  101 1    
    46   23   24 2    
    47   23   25 1    
    48   25   26 1    
    49   25   27 1    
    50   25  102 1    
    51   26  103 1    
    52   26  104 1    
    53   26  105 1    
    54   27   28 am   BACKBONE|DICT|INTERRES
    55   27  106 1    
    56   28   29 2    
    57   28   30 1    
    58   30   31 1    
    59   30   32 1    
    60   30  107 1    
    61   31  108 1    
    62   31  109 1    
    63   31  110 1    
    64   32   33 am   BACKBONE|DICT|INTERRES
    65   32  111 1    
    66   33   34 2    
    67   33   35 1    
    68   35   36 1    
    69   35   37 1    
    70   35  112 1    
    71   36  113 1    
    72   36  114 1    
    73   36  115 1    
    74   37   38 am   BACKBONE|DICT|INTERRES
    75   37  116 1    
    76   38   39 2    
    77   38   40 1    
    78   40   41 1    
    79   40   42 1    
    80   40  117 1    
    81   41  118 1    
    82   41  119 1    
    83   41  120 1    
    84   42   43 am   BACKBONE|DICT|INTERRES
    85   42  121 1    
    86   43   44 2    
    87   43   45 1    
    88   45   46 1    
    89   45   47 1    
    90   45  122 1    
    91   46  123 1    
    92   46  124 1    
    93   46  125 1    
    94   47   48 am   BACKBONE|DICT|INTERRES
    95   47  126 1    
    96   48   49 2    
    97   48   50 1    
    98   50   51 1    
    99   50   52 1    
   100   50  127 1    
   101   51  128 1    
   102   51  129 1    
   103   51  130 1    
   104   52   53 am   BACKBONE|DICT|INTERRES
   105   52  131 1    
   106   53   54 2    
   107   53   55 1    
   108   55   56 1    
   109   55   59 1    
   110   55  132 1    
   111   56   57 1    
   112   56  133 1    
   113   56  134 1    
   114   57   58 1    
   115   58  135 1    
   116   58  136 1    
   117   59   60 am   BACKBONE|DICT|INTERRES
   118   59  137 1    
   119   60   61 2    
   120   60   62 1    
   121   62   63 1    
   122   62   64 1    
   123   62  138 1    
   124   63  139 1    
   125   63  140 1    
   126   63  141 1    
   127   64   65 am   BACKBONE|DICT|INTERRES
   128   64  142 1    
   129   65   66 2    
   130   65   67 1    
   131   67   68 1    
   132   67   69 1    
   133   67  143 1    
   134   68  144 1    
   135   68  145 1    
   136   68  146 1    
   137   69   70 am   BACKBONE|DICT|INTERRES
   138   69  147 1    
   139   70   71 2    
   140   70   72 1    
   141   72   73 1    
   142   72   74 1    
   143   72  148 1    
   144   73  149 1    
   145   73  150 1    
   146   73  151 1    
   147   74   75 am   BACKBONE|DICT|INTERRES
   148   74  152 1    
   149   75   76 2    
   150   75   77 1    
   151   77   78 1    
   152   77   79 1    
   153   77  153 1    
   154   78  154 1    
   155   78  155 1    
   156   78  156 1    
   157   79   80 am   BACKBONE|DICT|INTERRES
   158   79  157 1    
   159   80   81 2    
@<TRIPOS>SUBSTRUCTURE
     1 UNK         1 GROUP             0       ****    0 ROOT    
