@<TRIPOS>MOLECULE
3R207
157   159    1
SMALL
USER_CHARGES


@<TRIPOS>ATOM
      1 CA        -48.3575  -28.3045    0.4853 C.3       0 UNK        -0.1975 
      2 C         -48.5569  -27.6649    1.8517 C.2       0 UNK         0.4852 
      3 O         -47.6541  -26.9889    2.3481 O.2       0 UNK        -0.5216 
      4 N         -49.7343  -27.8652    2.4568 N.am      1 UNK        -0.4461 
      5 CA        -50.0788  -27.3931    3.8015 C.3       1 UNK         0.0864 
      6 C6        -51.6080  -27.1980    3.9514 C.3       14 UNK        -0.0898 
      7 S7        -52.6056  -28.7209    3.7709 S.3       14 UNK        -0.2598 
      8 C8        -54.1302  -28.2815    4.6723 C.3       14 UNK         0.0286 
      9 C9        -53.8963  -28.2149    6.1745 C.ar      14 UNK        -0.0844 
     10 C10       -53.6174  -26.9912    6.7893 C.ar      14 UNK        -0.0881 
     11 C11       -53.3048  -26.9344    8.1486 C.ar      14 UNK        -0.0643 
     12 C12       -53.3457  -28.1035    8.9137 C.ar      14 UNK        -0.0930 
     13 C13       -53.6566  -29.3298    8.3162 C.ar      14 UNK        -0.0827 
     14 C14       -53.9261  -29.3806    6.9454 C.ar      14 UNK        -0.1249 
     15 C15       -53.6506  -30.6046    9.1429 C.3       14 UNK         0.0141 
     16 S16       -55.3103  -30.9846    9.7828 S.3       14 UNK        -0.2313 
     17 C17       -54.8932  -32.0710   11.1899 C.3       14 UNK        -0.0915 
     18 CA        -55.0326  -31.3475   12.5569 C.3       13 UNK         0.0968 
     19 C         -54.7608  -32.3163   13.7451 C.2       13 UNK         0.5732 
     20 N         -53.7867  -32.0634   14.6132 N.am      13 UNK        -0.7310 
     21 O         -55.4582  -33.3180   13.8882 O.2       13 UNK        -0.5035 
     22 N         -54.2325  -30.1155   12.6013 N.am      13 UNK        -0.4233 
     23 C         -54.5239  -29.0441   13.3433 C.2       13 UNK         0.4989 
     24 O         -55.5290  -28.9360   14.0492 O.2       13 UNK        -0.4996 
     25 CA        -53.4978  -27.9018   13.2947 C.3       12 UNK         0.0216 
     26 CB        -54.1484  -26.6002   12.7965 C.3       12 UNK        -0.1964 
     27 N         -52.8643  -27.6918   14.5998 N.am      12 UNK        -0.4276 
     28 C         -52.1174  -28.6094   15.2360 C.2       12 UNK         0.5020 
     29 O         -51.9189  -29.7425   14.7906 O.2       12 UNK        -0.5489 
     30 CA        -51.4563  -28.2263   16.5732 C.3       11 UNK         0.0294 
     31 CB        -49.9246  -28.2312   16.4327 C.3       11 UNK        -0.2019 
     32 N         -51.8770  -26.9186   17.0775 N.am      11 UNK        -0.4493 
     33 C         -52.9446  -26.7074   17.8610 C.2       11 UNK         0.4932 
     34 O         -53.6746  -27.6081   18.2753 O.2       11 UNK        -0.5029 
     35 CA        -53.2663  -25.2482   18.2485 C.3       10 UNK         0.0280 
     36 CB        -52.6998  -24.9271   19.6409 C.3       10 UNK        -0.1976 
     37 N         -52.7718  -24.2563   17.2886 N.am      10 UNK        -0.4242 
     38 C         -53.1476  -24.1842   16.0045 C.2       10 UNK         0.5072 
     39 O         -54.0385  -24.8831   15.5239 O.2       10 UNK        -0.5224 
     40 CA        -52.3906  -23.2094   15.0840 C.3       9 UNK         0.0343 
     41 CB        -53.2064  -21.9214   14.8900 C.3       9 UNK        -0.2003 
     42 N         -51.0202  -22.8499   15.4756 N.am      9 UNK        -0.4272 
     43 C         -50.0216  -23.6807   15.8114 C.2       9 UNK         0.4988 
     44 O         -50.1624  -24.8832   16.0337 O.2       9 UNK        -0.5108 
     45 CA        -48.6216  -23.0501   15.8687 C.3       8 UNK         0.0248 
     46 CB        -47.5699  -23.9980   16.4751 C.3       8 UNK        -0.2001 
     47 N         -48.2191  -22.6884   14.5102 N.am      8 UNK        -0.4140 
     48 C         -48.5216  -21.5315   13.9061 C.2       8 UNK         0.5028 
     49 O         -49.0654  -20.5855   14.4783 O.2       8 UNK        -0.5428 
     50 CA        -48.2359  -21.4434   12.3978 C.3       7 UNK         0.0264 
     51 CB        -46.7256  -21.3926   12.1145 C.3       7 UNK        -0.1988 
     52 N         -48.8466  -22.5542   11.6622 N.am      7 UNK        -0.4454 
     53 C         -50.1697  -22.7531   11.5364 C.2       7 UNK         0.5027 
     54 O         -51.0232  -21.9747   11.9616 O.2       7 UNK        -0.5083 
     55 CA        -50.6186  -24.0402   10.8207 C.3       6 UNK         0.0844 
     56 C56       -50.7514  -23.8013    9.2956 C.3       14 UNK        -0.0967 
     57 S57       -51.1079  -25.3175    8.3507 S.3       14 UNK        -0.2604 
     58 C58       -52.8549  -25.6203    8.7641 C.3       14 UNK         0.0134 
     59 N         -49.7225  -25.1473   11.1611 N.am      6 UNK        -0.4116 
     60 C         -49.8370  -25.8876   12.2720 C.2       5 UNK         0.5034 
     61 O         -50.7663  -25.7791   13.0677 O.2       5 UNK        -0.5045 
     62 CA        -48.7313  -26.9173   12.5597 C.3       5 UNK         0.0224 
     63 CB        -49.1822  -28.3254   12.1457 C.3       5 UNK        -0.1978 
     64 N         -47.4567  -26.5943   11.9110 N.am      5 UNK        -0.4737 
     65 C         -46.6659  -25.5837   12.3006 C.2       4 UNK         0.5027 
     66 O         -46.9189  -24.8516   13.2553 O.2       4 UNK        -0.5211 
     67 CA        -45.4096  -25.2972   11.4629 C.3       4 UNK         0.0297 
     68 CB        -44.2077  -26.0754   12.0196 C.3       4 UNK        -0.1993 
     69 N         -45.5609  -25.5884   10.0361 N.am      4 UNK        -0.4486 
     70 C         -46.4917  -25.0727    9.2212 C.2       3 UNK         0.4961 
     71 O         -47.3693  -24.2905    9.5914 O.2       3 UNK        -0.5105 
     72 CA        -46.4477  -25.5182    7.7471 C.3       3 UNK         0.0299 
     73 CB        -45.0821  -26.0980    7.3137 C.3       3 UNK        -0.1972 
     74 N         -47.5176  -26.4580    7.3921 N.am      3 UNK        -0.4305 
     75 C         -47.8594  -27.6003    8.0135 C.2       2 UNK         0.5006 
     76 O         -47.3643  -27.9788    9.0772 O.2       2 UNK        -0.5106 
     77 CA        -48.9088  -28.4926    7.3209 C.3       2 UNK         0.0296 
     78 CB        -50.0007  -28.9595    8.2971 C.3       2 UNK        -0.2002 
     79 N         -49.5304  -27.8358    6.1616 N.am      2 UNK        -0.4032 
     80 C         -49.4562  -28.2894    4.9008 C.2       1 UNK         0.5000 
     81 O         -48.9139  -29.3560    4.5927 O.2       1 UNK        -0.5238 
     82 H82       -47.5155  -28.9955    0.5145 H         1 UNK         0.0889 
     83 H83       -48.1453  -27.5389   -0.2605 H         1 UNK         0.0889 
     84 H84       -49.2391  -28.8578    0.1617 H         1 UNK         0.0889 
     85 H85       -50.4262  -28.4594    2.0223 H         1 UNK         0.3028 
     86 H86       -49.6248  -26.4071    3.9253 H         1 UNK         0.0864 
     87 H87       -51.8116  -26.7286    4.9104 H         1 UNK         0.0720 
     88 H88       -51.9578  -26.4833    3.2047 H         1 UNK         0.0720 
     89 H89       -54.8962  -29.0273    4.4549 H         1 UNK         0.0814 
     90 H90       -54.5157  -27.3318    4.2981 H         1 UNK         0.0814 
     91 H91       -53.5878  -26.0846    6.2005 H         1 UNK         0.1469 
     92 H92       -53.1014  -28.0635    9.9658 H         1 UNK         0.1381 
     93 H93       -54.1403  -30.3305    6.4745 H         1 UNK         0.1206 
     94 H94       -53.2959  -31.4437    8.5424 H         1 UNK         0.0813 
     95 H95       -52.9438  -30.5011    9.9668 H         1 UNK         0.0813 
     96 H96       -55.5653  -32.9299   11.1468 H         1 UNK         0.0638 
     97 H97       -53.8854  -32.4710   11.0637 H         1 UNK         0.0638 
     98 H98       -56.0816  -31.0614   12.6549 H         1 UNK         0.0568 
     99 H99       -53.6336  -32.7045   15.3746 H         1 UNK         0.3450 
    100 H100      -53.1993  -31.2398   14.5255 H         1 UNK         0.3450 
    101 H101      -53.3567  -30.1423   12.1037 H         1 UNK         0.2987 
    102 H102      -52.7034  -28.1614   12.5919 H         1 UNK         0.0766 
    103 H103      -54.9637  -26.2824   13.4473 H         1 UNK         0.0798 
    104 H104      -53.4262  -25.7857   12.7438 H         1 UNK         0.0798 
    105 H105      -54.5642  -26.7309   11.7968 H         1 UNK         0.0798 
    106 H106      -53.0147  -26.7907   15.0365 H         1 UNK         0.3198 
    107 H107      -51.7290  -28.9967   17.2976 H         1 UNK         0.0843 
    108 H108      -49.5631  -29.2045   16.0981 H         1 UNK         0.0831 
    109 H109      -49.4375  -28.0133   17.3830 H         1 UNK         0.0831 
    110 H110      -49.5877  -27.4914   15.7067 H         1 UNK         0.0831 
    111 H111      -51.3228  -26.1215   16.7640 H         1 UNK         0.3133 
    112 H112      -54.3533  -25.1533   18.2906 H         1 UNK         0.0566 
    113 H113      -52.9904  -23.9289   19.9688 H         1 UNK         0.0814 
    114 H114      -53.0728  -25.6318   20.3856 H         1 UNK         0.0814 
    115 H115      -51.6105  -24.9839   19.6560 H         1 UNK         0.0814 
    116 H116      -52.0206  -23.6561   17.5956 H         1 UNK         0.3091 
    117 H117      -52.3089  -23.7035   14.1138 H         1 UNK         0.0702 
    118 H118      -52.7594  -21.2802   14.1298 H         1 UNK         0.0785 
    119 H119      -53.2794  -21.3480   15.8149 H         1 UNK         0.0785 
    120 H120      -54.2226  -22.1462   14.5624 H         1 UNK         0.0785 
    121 H121      -50.7596  -21.8866   15.3022 H         1 UNK         0.2998 
    122 H122      -48.6727  -22.1581   16.4966 H         1 UNK         0.0697 
    123 H123      -47.4806  -24.9237   15.9049 H         1 UNK         0.0825 
    124 H124      -47.8349  -24.2704   17.4973 H         1 UNK         0.0825 
    125 H125      -46.5861  -23.5299   16.5067 H         1 UNK         0.0825 
    126 H126      -47.7871  -23.4343   13.9648 H         1 UNK         0.3029 
    127 H127      -48.6801  -20.5164   12.0286 H         1 UNK         0.0897 
    128 H128      -46.5241  -21.3106   11.0462 H         1 UNK         0.0792 
    129 H129      -46.2702  -20.5273   12.5980 H         1 UNK         0.0792 
    130 H130      -46.2106  -22.2783   12.4856 H         1 UNK         0.0792 
    131 H131      -48.2181  -23.2204   11.2274 H         1 UNK         0.3086 
    132 H132      -51.6154  -24.2772   11.1980 H         1 UNK         0.0583 
    133 H133      -51.5330  -23.0670    9.0908 H         1 UNK         0.1020 
    134 H134      -49.8295  -23.3790    8.8908 H         1 UNK         0.1020 
    135 H135      -52.9808  -25.6484    9.8471 H         1 UNK         0.0694 
    136 H136      -53.4705  -24.7990    8.3943 H         1 UNK         0.0694 
    137 H137      -48.9171  -25.2710   10.5596 H         1 UNK         0.2989 
    138 H138      -48.5693  -26.9153   13.6396 H         1 UNK         0.1055 
    139 H139      -49.3754  -28.3825   11.0758 H         1 UNK         0.0806 
    140 H140      -50.1016  -28.6075   12.6610 H         1 UNK         0.0806 
    141 H141      -48.4297  -29.0739   12.3935 H         1 UNK         0.0806 
    142 H142      -47.2080  -27.1256   11.0825 H         1 UNK         0.3061 
    143 H143      -45.1939  -24.2312   11.5513 H         1 UNK         0.0734 
    144 H144      -44.0594  -25.8574   13.0784 H         1 UNK         0.0832 
    145 H145      -44.3456  -27.1534   11.9257 H         1 UNK         0.0832 
    146 H146      -43.2853  -25.8068   11.5043 H         1 UNK         0.0832 
    147 H147      -44.9107  -26.2516    9.6402 H         1 UNK         0.3156 
    148 H148      -46.6214  -24.6163    7.1581 H         1 UNK         0.0589 
    149 H149      -44.8690  -27.0570    7.7876 H         1 UNK         0.0808 
    150 H150      -45.0533  -26.2566    6.2355 H         1 UNK         0.0808 
    151 H151      -44.2657  -25.4150    7.5536 H         1 UNK         0.0808 
    152 H152      -48.0050  -26.2375    6.5370 H         1 UNK         0.3098 
    153 H153      -48.3642  -29.3820    6.9987 H         1 UNK         0.0720 
    154 H154      -50.7730  -29.5303    7.7816 H         1 UNK         0.0791 
    155 H155      -50.4802  -28.1215    8.8007 H         1 UNK         0.0791 
    156 H156      -49.5819  -29.6092    9.0658 H         1 UNK         0.0791 
    157 H157      -50.0439  -26.9864    6.3561 H         1 UNK         0.3028 
@<TRIPOS>BOND
     1    1    2 1    
     2    1   82 1    
     3    1   83 1    
     4    1   84 1    
     5    2    3 2    
     6    2    4 am   BACKBONE|DICT|INTERRES
     7    4    5 1    
     8    4   85 1    
     9    5    6 1    
    10    5   80 1    
    11    5   86 1    
    12    6    7 1    
    13    6   87 1    
    14    6   88 1    
    15    7    8 1    
    16    8    9 1    
    17    8   89 1    
    18    8   90 1    
    19    9   10 ar   
    20    9   14 ar   
    21   10   11 ar   
    22   10   91 1    
    23   11   12 ar   
    24   11   58 1    
    25   12   13 ar   
    26   12   92 1    
    27   13   14 ar   
    28   13   15 1    
    29   14   93 1    
    30   15   16 1    
    31   15   94 1    
    32   15   95 1    
    33   16   17 1    
    34   17   18 1    
    35   17   96 1    
    36   17   97 1    
    37   18   19 1    
    38   18   22 1    
    39   18   98 1    
    40   19   20 am   BACKBONE|DICT|INTERRES
    41   19   21 2    
    42   20   99 1    
    43   20  100 1    
    44   22   23 am   BACKBONE|DICT|INTERRES
    45   22  101 1    
    46   23   24 2    
    47   23   25 1    
    48   25   26 1    
    49   25   27 1    
    50   25  102 1    
    51   26  103 1    
    52   26  104 1    
    53   26  105 1    
    54   27   28 am   BACKBONE|DICT|INTERRES
    55   27  106 1    
    56   28   29 2    
    57   28   30 1    
    58   30   31 1    
    59   30   32 1    
    60   30  107 1    
    61   31  108 1    
    62   31  109 1    
    63   31  110 1    
    64   32   33 am   BACKBONE|DICT|INTERRES
    65   32  111 1    
    66   33   34 2    
    67   33   35 1    
    68   35   36 1    
    69   35   37 1    
    70   35  112 1    
    71   36  113 1    
    72   36  114 1    
    73   36  115 1    
    74   37   38 am   BACKBONE|DICT|INTERRES
    75   37  116 1    
    76   38   39 2    
    77   38   40 1    
    78   40   41 1    
    79   40   42 1    
    80   40  117 1    
    81   41  118 1    
    82   41  119 1    
    83   41  120 1    
    84   42   43 am   BACKBONE|DICT|INTERRES
    85   42  121 1    
    86   43   44 2    
    87   43   45 1    
    88   45   46 1    
    89   45   47 1    
    90   45  122 1    
    91   46  123 1    
    92   46  124 1    
    93   46  125 1    
    94   47   48 am   BACKBONE|DICT|INTERRES
    95   47  126 1    
    96   48   49 2    
    97   48   50 1    
    98   50   51 1    
    99   50   52 1    
   100   50  127 1    
   101   51  128 1    
   102   51  129 1    
   103   51  130 1    
   104   52   53 am   BACKBONE|DICT|INTERRES
   105   52  131 1    
   106   53   54 2    
   107   53   55 1    
   108   55   56 1    
   109   55   59 1    
   110   55  132 1    
   111   56   57 1    
   112   56  133 1    
   113   56  134 1    
   114   57   58 1    
   115   58  135 1    
   116   58  136 1    
   117   59   60 am   BACKBONE|DICT|INTERRES
   118   59  137 1    
   119   60   61 2    
   120   60   62 1    
   121   62   63 1    
   122   62   64 1    
   123   62  138 1    
   124   63  139 1    
   125   63  140 1    
   126   63  141 1    
   127   64   65 am   BACKBONE|DICT|INTERRES
   128   64  142 1    
   129   65   66 2    
   130   65   67 1    
   131   67   68 1    
   132   67   69 1    
   133   67  143 1    
   134   68  144 1    
   135   68  145 1    
   136   68  146 1    
   137   69   70 am   BACKBONE|DICT|INTERRES
   138   69  147 1    
   139   70   71 2    
   140   70   72 1    
   141   72   73 1    
   142   72   74 1    
   143   72  148 1    
   144   73  149 1    
   145   73  150 1    
   146   73  151 1    
   147   74   75 am   BACKBONE|DICT|INTERRES
   148   74  152 1    
   149   75   76 2    
   150   75   77 1    
   151   77   78 1    
   152   77   79 1    
   153   77  153 1    
   154   78  154 1    
   155   78  155 1    
   156   78  156 1    
   157   79   80 am   BACKBONE|DICT|INTERRES
   158   79  157 1    
   159   80   81 2    
@<TRIPOS>SUBSTRUCTURE
     1 UNK         1 GROUP             0       ****    0 ROOT    
