@<TRIPOS>MOLECULE
3R207
157   159    1
SMALL
USER_CHARGES


@<TRIPOS>ATOM
      1 CA        -48.9201  -24.8118    4.5346 C.3       0 UNK        -0.1975 
      2 C         -48.9327  -25.6035    3.2300 C.2       0 UNK         0.4852 
      3 O         -48.4111  -25.1188    2.2269 O.2       0 UNK        -0.5216 
      4 N         -49.5221  -26.8062    3.1803 N.am      1 UNK        -0.4461 
      5 CA        -50.1212  -27.5498    4.2962 C.3       1 UNK         0.0864 
      6 C6        -51.1266  -28.6122    3.7865 C.3       14 UNK        -0.0898 
      7 S7        -52.6268  -27.8077    3.1296 S.3       14 UNK        -0.2598 
      8 C8        -53.8871  -28.2363    4.3806 C.3       14 UNK         0.0286 
      9 C9        -53.4637  -27.9198    5.8124 C.ar      14 UNK        -0.0844 
     10 C10       -53.0769  -26.6252    6.1779 C.ar      14 UNK        -0.0881 
     11 C11       -52.6739  -26.3511    7.4885 C.ar      14 UNK        -0.0643 
     12 C12       -52.7014  -27.3672    8.4466 C.ar      14 UNK        -0.0930 
     13 C13       -53.1070  -28.6574    8.1002 C.ar      14 UNK        -0.0827 
     14 C14       -53.4723  -28.9314    6.7791 C.ar      14 UNK        -0.1249 
     15 C15       -53.1615  -29.7475    9.1583 C.3       14 UNK         0.0141 
     16 S16       -54.8823  -30.0767    9.6459 S.3       14 UNK        -0.2313 
     17 C17       -54.6646  -30.9909   11.2090 C.3       14 UNK        -0.0915 
     18 CA        -55.2717  -30.2285   12.4269 C.3       13 UNK         0.0968 
     19 C         -56.8064  -30.4638   12.6094 C.2       13 UNK         0.5732 
     20 N         -57.3362  -30.5237   13.8264 N.am      13 UNK        -0.7310 
     21 O         -57.5457  -30.5672   11.6336 O.2       13 UNK        -0.5035 
     22 N         -54.4814  -30.4023   13.6555 N.am      13 UNK        -0.4233 
     23 C         -54.2545  -31.5642   14.2848 C.2       13 UNK         0.4989 
     24 O         -54.5751  -32.6664   13.8390 O.2       13 UNK        -0.4996 
     25 CA        -53.5755  -31.4891   15.6660 C.3       12 UNK         0.0216 
     26 CB        -52.0600  -31.7097   15.5271 C.3       12 UNK        -0.1964 
     27 N         -53.8126  -30.2377   16.3965 N.am      12 UNK        -0.4276 
     28 C         -55.0079  -29.7274   16.7308 C.2       12 UNK         0.5020 
     29 O         -56.0800  -30.2699   16.4610 O.2       12 UNK        -0.5489 
     30 CA        -55.0194  -28.3759   17.4701 C.3       11 UNK         0.0294 
     31 CB        -55.3890  -28.5778   18.9489 C.3       11 UNK        -0.2019 
     32 N         -53.7525  -27.6396   17.3882 N.am      11 UNK        -0.4493 
     33 C         -53.2667  -27.0639   16.2805 C.2       11 UNK         0.4932 
     34 O         -53.8230  -27.1015   15.1807 O.2       11 UNK        -0.5029 
     35 CA        -51.8864  -26.4070   16.4237 C.3       10 UNK         0.0280 
     36 CB        -50.7796  -27.3927   16.0160 C.3       10 UNK        -0.1976 
     37 N         -51.7616  -25.1879   15.6273 N.am      10 UNK        -0.4242 
     38 C         -52.3616  -24.0225   15.9059 C.2       10 UNK         0.5072 
     39 O         -53.1649  -23.8627   16.8280 O.2       10 UNK        -0.5224 
     40 CA        -51.9202  -22.8276   15.0364 C.3       9 UNK         0.0343 
     41 CB        -52.5134  -21.4780   15.4933 C.3       9 UNK        -0.2003 
     42 N         -50.4557  -22.7616   14.9397 N.am      9 UNK        -0.4272 
     43 C         -49.5768  -22.6322   15.9475 C.2       9 UNK         0.4988 
     44 O         -49.8895  -22.3777   17.1112 O.2       9 UNK        -0.5108 
     45 CA        -48.0916  -22.8753   15.6225 C.3       8 UNK         0.0248 
     46 CB        -47.6815  -24.2854   16.0782 C.3       8 UNK        -0.2001 
     47 N         -47.7619  -22.7156   14.2037 N.am      8 UNK        -0.4140 
     48 C         -47.6940  -21.5319   13.5782 C.2       8 UNK         0.5028 
     49 O         -47.8625  -20.4484   14.1395 O.2       8 UNK        -0.5428 
     50 CA        -47.4055  -21.5586   12.0691 C.3       7 UNK         0.0264 
     51 CB        -45.9033  -21.7539   11.8072 C.3       7 UNK        -0.1988 
     52 N         -48.1656  -22.5862   11.3536 N.am      7 UNK        -0.4454 
     53 C         -49.5022  -22.6117   11.2304 C.2       7 UNK         0.5027 
     54 O         -50.2549  -21.7658   11.7137 O.2       7 UNK        -0.5083 
     55 CA        -50.0973  -23.8009   10.4504 C.3       6 UNK         0.0844 
     56 C56       -49.9366  -23.5613    8.9230 C.3       14 UNK        -0.0967 
     57 S57       -50.3528  -24.9915    7.8784 S.3       14 UNK        -0.2604 
     58 C58       -52.1662  -24.9741    7.8771 C.3       14 UNK         0.0134 
     59 N         -49.5481  -25.0755   10.9304 N.am      6 UNK        -0.4116 
     60 C         -49.7069  -25.5531   12.1761 C.2       5 UNK         0.5034 
     61 O         -50.3979  -25.0165   13.0421 O.2       5 UNK        -0.5045 
     62 CA        -48.9277  -26.8211   12.5478 C.3       5 UNK         0.0224 
     63 CB        -49.7295  -28.0835   12.1866 C.3       5 UNK        -0.1978 
     64 N         -47.6089  -26.8549   11.9144 N.am      5 UNK        -0.4737 
     65 C         -46.5851  -26.0607   12.2578 C.2       4 UNK         0.5027 
     66 O         -46.6330  -25.2458   13.1787 O.2       4 UNK        -0.5211 
     67 CA        -45.3105  -26.1595   11.4017 C.3       4 UNK         0.0297 
     68 CB        -44.4390  -27.3377   11.8636 C.3       4 UNK        -0.1993 
     69 N         -45.5932  -26.2856    9.9690 N.am      4 UNK        -0.4486 
     70 C         -46.1870  -25.3354    9.2344 C.2       3 UNK         0.4961 
     71 O         -46.5203  -24.2365    9.6784 O.2       3 UNK        -0.5105 
     72 CA        -46.5058  -25.6745    7.7678 C.3       3 UNK         0.0299 
     73 CB        -45.2965  -25.3726    6.8696 C.3       3 UNK        -0.1972 
     74 N         -46.9842  -27.0395    7.5012 N.am      3 UNK        -0.4305 
     75 C         -47.9501  -27.6900    8.1671 C.2       2 UNK         0.5006 
     76 O         -48.4414  -27.2982    9.2236 O.2       2 UNK        -0.5106 
     77 CA        -48.5204  -28.9467    7.4929 C.3       2 UNK         0.0296 
     78 CB        -49.2949  -29.8417    8.4786 C.3       2 UNK        -0.2002 
     79 N         -49.4278  -28.5211    6.4286 N.am      2 UNK        -0.4032 
     80 C         -49.0405  -28.1848    5.1921 C.2       1 UNK         0.5000 
     81 O         -47.8880  -28.3334    4.7748 O.2       1 UNK        -0.5238 
     82 H82       -48.4285  -25.3693    5.3296 H         1 UNK         0.0889 
     83 H83       -49.9350  -24.5691    4.8479 H         1 UNK         0.0889 
     84 H84       -48.3798  -23.8739    4.4089 H         1 UNK         0.0889 
     85 H85       -49.5043  -27.3056    2.3033 H         1 UNK         0.3028 
     86 H86       -50.6623  -26.8404    4.9230 H         1 UNK         0.0864 
     87 H87       -50.6805  -29.2241    3.0004 H         1 UNK         0.0720 
     88 H88       -51.4152  -29.3089    4.5757 H         1 UNK         0.0720 
     89 H89       -54.1282  -29.2953    4.2757 H         1 UNK         0.0814 
     90 H90       -54.8052  -27.6920    4.1559 H         1 UNK         0.0814 
     91 H91       -53.0617  -25.8401    5.4340 H         1 UNK         0.1469 
     92 H92       -52.3950  -27.1508    9.4613 H         1 UNK         0.1381 
     93 H93       -53.7833  -29.9325    6.5122 H         1 UNK         0.1206 
     94 H94       -52.5820  -29.4524   10.0348 H         1 UNK         0.0813 
     95 H95       -52.7073  -30.6632    8.7770 H         1 UNK         0.0813 
     96 H96       -55.1047  -31.9843   11.1057 H         1 UNK         0.0638 
     97 H97       -53.5976  -31.1610   11.3604 H         1 UNK         0.0638 
     98 H98       -55.1871  -29.1603   12.2240 H         1 UNK         0.0568 
     99 H99       -58.3292  -30.6661   13.9160 H         1 UNK         0.3450 
    100 H100      -56.7667  -30.4411   14.6633 H         1 UNK         0.3450 
    101 H101      -54.1955  -29.5476   14.1125 H         1 UNK         0.2987 
    102 H102      -53.9876  -32.2994   16.2710 H         1 UNK         0.0766 
    103 H103      -51.5848  -30.9083   14.9596 H         1 UNK         0.0798 
    104 H104      -51.8475  -32.6458   15.0084 H         1 UNK         0.0798 
    105 H105      -51.5744  -31.7664   16.5016 H         1 UNK         0.0798 
    106 H106      -52.9944  -29.7175   16.6752 H         1 UNK         0.3198 
    107 H107      -55.7949  -27.7634   17.0045 H         1 UNK         0.0843 
    108 H108      -55.4854  -27.6244   19.4688 H         1 UNK         0.0831 
    109 H109      -54.6438  -29.1758   19.4750 H         1 UNK         0.0831 
    110 H110      -56.3458  -29.0934   19.0450 H         1 UNK         0.0831 
    111 H111      -53.2213  -27.5637   18.2447 H         1 UNK         0.3133 
    112 H112      -51.7322  -26.1343   17.4701 H         1 UNK         0.0566 
    113 H113      -49.7903  -26.9483   16.1245 H         1 UNK         0.0814 
    114 H114      -50.7992  -28.2869   16.6401 H         1 UNK         0.0814 
    115 H115      -50.8925  -27.7160   14.9817 H         1 UNK         0.0814 
    116 H116      -51.1783  -25.2303   14.7961 H         1 UNK         0.3091 
    117 H117      -52.2861  -23.0260   14.0277 H         1 UNK         0.0702 
    118 H118      -52.1835  -20.6637   14.8482 H         1 UNK         0.0785 
    119 H119      -52.2289  -21.2321   16.5168 H         1 UNK         0.0785 
    120 H120      -53.6031  -21.5009   15.4567 H         1 UNK         0.0785 
    121 H121      -50.0840  -23.0057   14.0305 H         1 UNK         0.2998 
    122 H122      -47.5080  -22.1502   16.1938 H         1 UNK         0.0697 
    123 H123      -46.6142  -24.4543   15.9336 H         1 UNK         0.0825 
    124 H124      -47.8925  -24.4339   17.1381 H         1 UNK         0.0825 
    125 H125      -48.2193  -25.0570   15.5263 H         1 UNK         0.0825 
    126 H126      -47.5370  -23.5629   13.6880 H         1 UNK         0.3029 
    127 H127      -47.6984  -20.5886   11.6616 H         1 UNK         0.0897 
    128 H128      -45.6740  -21.6784   10.7441 H         1 UNK         0.0792 
    129 H129      -45.3136  -20.9936   12.3211 H         1 UNK         0.0792 
    130 H130      -45.5564  -22.7283   12.1538 H         1 UNK         0.0792 
    131 H131      -47.6183  -23.3019   10.8780 H         1 UNK         0.3086 
    132 H132      -51.1669  -23.8251   10.6683 H         1 UNK         0.0583 
    133 H133      -50.5437  -22.7105    8.6076 H         1 UNK         0.1020 
    134 H134      -48.9059  -23.2943    8.6818 H         1 UNK         0.1020 
    135 H135      -52.5414  -24.7107    8.8668 H         1 UNK         0.0694 
    136 H136      -52.5269  -24.2102    7.1868 H         1 UNK         0.0694 
    137 H137      -49.0139  -25.6261   10.2656 H         1 UNK         0.2989 
    138 H138      -48.7804  -26.8106   13.6298 H         1 UNK         0.1055 
    139 H139      -49.2086  -28.9881   12.5003 H         1 UNK         0.0806 
    140 H140      -50.7038  -28.0826   12.6759 H         1 UNK         0.0806 
    141 H141      -49.9169  -28.1583   11.1163 H         1 UNK         0.0806 
    142 H142      -47.5387  -27.3953   11.0595 H         1 UNK         0.3061 
    143 H143      -44.7430  -25.2381   11.5500 H         1 UNK         0.0734 
    144 H144      -43.4924  -27.3675   11.3237 H         1 UNK         0.0832 
    145 H145      -44.2018  -27.2526   12.9251 H         1 UNK         0.0832 
    146 H146      -44.9406  -28.2953   11.7182 H         1 UNK         0.0832 
    147 H147      -45.3676  -27.1642    9.5257 H         1 UNK         0.3156 
    148 H148      -47.3128  -25.0043    7.4678 H         1 UNK         0.0589 
    149 H149      -44.4666  -26.0518    7.0685 H         1 UNK         0.0808 
    150 H150      -45.5546  -25.4565    5.8137 H         1 UNK         0.0808 
    151 H151      -44.9328  -24.3566    7.0311 H         1 UNK         0.0808 
    152 H152      -46.6772  -27.4507    6.6290 H         1 UNK         0.3098 
    153 H153      -47.6939  -29.5288    7.0796 H         1 UNK         0.0720 
    154 H154      -48.6565  -30.1551    9.3055 H         1 UNK         0.0791 
    155 H155      -49.6614  -30.7443    7.9895 H         1 UNK         0.0791 
    156 H156      -50.1531  -29.3237    8.9077 H         1 UNK         0.0791 
    157 H157      -50.3803  -28.3313    6.7108 H         1 UNK         0.3028 
@<TRIPOS>BOND
     1    1    2 1    
     2    1   82 1    
     3    1   83 1    
     4    1   84 1    
     5    2    3 2    
     6    2    4 am   BACKBONE|DICT|INTERRES
     7    4    5 1    
     8    4   85 1    
     9    5    6 1    
    10    5   80 1    
    11    5   86 1    
    12    6    7 1    
    13    6   87 1    
    14    6   88 1    
    15    7    8 1    
    16    8    9 1    
    17    8   89 1    
    18    8   90 1    
    19    9   10 ar   
    20    9   14 ar   
    21   10   11 ar   
    22   10   91 1    
    23   11   12 ar   
    24   11   58 1    
    25   12   13 ar   
    26   12   92 1    
    27   13   14 ar   
    28   13   15 1    
    29   14   93 1    
    30   15   16 1    
    31   15   94 1    
    32   15   95 1    
    33   16   17 1    
    34   17   18 1    
    35   17   96 1    
    36   17   97 1    
    37   18   19 1    
    38   18   22 1    
    39   18   98 1    
    40   19   20 am   BACKBONE|DICT|INTERRES
    41   19   21 2    
    42   20   99 1    
    43   20  100 1    
    44   22   23 am   BACKBONE|DICT|INTERRES
    45   22  101 1    
    46   23   24 2    
    47   23   25 1    
    48   25   26 1    
    49   25   27 1    
    50   25  102 1    
    51   26  103 1    
    52   26  104 1    
    53   26  105 1    
    54   27   28 am   BACKBONE|DICT|INTERRES
    55   27  106 1    
    56   28   29 2    
    57   28   30 1    
    58   30   31 1    
    59   30   32 1    
    60   30  107 1    
    61   31  108 1    
    62   31  109 1    
    63   31  110 1    
    64   32   33 am   BACKBONE|DICT|INTERRES
    65   32  111 1    
    66   33   34 2    
    67   33   35 1    
    68   35   36 1    
    69   35   37 1    
    70   35  112 1    
    71   36  113 1    
    72   36  114 1    
    73   36  115 1    
    74   37   38 am   BACKBONE|DICT|INTERRES
    75   37  116 1    
    76   38   39 2    
    77   38   40 1    
    78   40   41 1    
    79   40   42 1    
    80   40  117 1    
    81   41  118 1    
    82   41  119 1    
    83   41  120 1    
    84   42   43 am   BACKBONE|DICT|INTERRES
    85   42  121 1    
    86   43   44 2    
    87   43   45 1    
    88   45   46 1    
    89   45   47 1    
    90   45  122 1    
    91   46  123 1    
    92   46  124 1    
    93   46  125 1    
    94   47   48 am   BACKBONE|DICT|INTERRES
    95   47  126 1    
    96   48   49 2    
    97   48   50 1    
    98   50   51 1    
    99   50   52 1    
   100   50  127 1    
   101   51  128 1    
   102   51  129 1    
   103   51  130 1    
   104   52   53 am   BACKBONE|DICT|INTERRES
   105   52  131 1    
   106   53   54 2    
   107   53   55 1    
   108   55   56 1    
   109   55   59 1    
   110   55  132 1    
   111   56   57 1    
   112   56  133 1    
   113   56  134 1    
   114   57   58 1    
   115   58  135 1    
   116   58  136 1    
   117   59   60 am   BACKBONE|DICT|INTERRES
   118   59  137 1    
   119   60   61 2    
   120   60   62 1    
   121   62   63 1    
   122   62   64 1    
   123   62  138 1    
   124   63  139 1    
   125   63  140 1    
   126   63  141 1    
   127   64   65 am   BACKBONE|DICT|INTERRES
   128   64  142 1    
   129   65   66 2    
   130   65   67 1    
   131   67   68 1    
   132   67   69 1    
   133   67  143 1    
   134   68  144 1    
   135   68  145 1    
   136   68  146 1    
   137   69   70 am   BACKBONE|DICT|INTERRES
   138   69  147 1    
   139   70   71 2    
   140   70   72 1    
   141   72   73 1    
   142   72   74 1    
   143   72  148 1    
   144   73  149 1    
   145   73  150 1    
   146   73  151 1    
   147   74   75 am   BACKBONE|DICT|INTERRES
   148   74  152 1    
   149   75   76 2    
   150   75   77 1    
   151   77   78 1    
   152   77   79 1    
   153   77  153 1    
   154   78  154 1    
   155   78  155 1    
   156   78  156 1    
   157   79   80 am   BACKBONE|DICT|INTERRES
   158   79  157 1    
   159   80   81 2    
@<TRIPOS>SUBSTRUCTURE
     1 UNK         1 GROUP             0       ****    0 ROOT    
