@<TRIPOS>MOLECULE
3R207
157   159    1
SMALL
USER_CHARGES


@<TRIPOS>ATOM
      1 CA        -48.5484  -21.1259   10.0357 C.3       0 UNK        -0.1975 
      2 C         -48.7525  -22.5713    9.6077 C.2       0 UNK         0.4852 
      3 O         -49.5449  -23.2866   10.2312 O.2       0 UNK        -0.5216 
      4 N         -48.0289  -22.9899    8.5623 N.am      1 UNK        -0.4461 
      5 CA        -48.0874  -24.3145    7.9454 C.3       1 UNK         0.0864 
      6 C6        -48.9086  -24.3023    6.6293 C.3       14 UNK        -0.0898 
      7 S7        -50.6927  -24.0981    6.9479 S.3       14 UNK        -0.2598 
      8 C8        -51.3629  -25.6821    6.3294 C.3       14 UNK         0.0286 
      9 C9        -52.6580  -26.1503    6.9944 C.ar      14 UNK        -0.0844 
     10 C10       -53.5030  -25.2863    7.7036 C.ar      14 UNK        -0.0881 
     11 C11       -54.6883  -25.7568    8.2737 C.ar      14 UNK        -0.0643 
     12 C12       -55.0389  -27.1023    8.1247 C.ar      14 UNK        -0.0930 
     13 C13       -54.2117  -27.9784    7.4145 C.ar      14 UNK        -0.0827 
     14 C14       -53.0241  -27.4936    6.8586 C.ar      14 UNK        -0.1249 
     15 C15       -54.6247  -29.4288    7.1771 C.3       14 UNK         0.0141 
     16 S16       -55.0661  -30.3356    8.6956 S.3       14 UNK        -0.2313 
     17 C17       -53.4535  -30.4887    9.5350 C.3       14 UNK        -0.0915 
     18 CA        -53.6026  -30.5741   11.0781 C.3       13 UNK         0.0968 
     19 C         -52.2359  -30.8394   11.7741 C.2       13 UNK         0.5732 
     20 N         -51.7980  -30.0344   12.7369 N.am      13 UNK        -0.7310 
     21 O         -51.5587  -31.8077   11.4387 O.2       13 UNK        -0.5035 
     22 N         -54.2898  -29.3918   11.6056 N.am      13 UNK        -0.4233 
     23 C         -55.1890  -29.3893   12.5900 C.2       13 UNK         0.4989 
     24 O         -55.6155  -30.3995   13.1545 O.2       13 UNK        -0.4996 
     25 CA        -55.7000  -28.0071   13.0195 C.3       12 UNK         0.0216 
     26 CB        -57.2126  -27.8702   12.7797 C.3       12 UNK        -0.1964 
     27 N         -55.3907  -27.7266   14.4212 N.am      12 UNK        -0.4276 
     28 C         -54.1490  -27.5697   14.8936 C.2       12 UNK         0.5020 
     29 O         -53.1302  -27.6688   14.2046 O.2       12 UNK        -0.5489 
     30 CA        -54.0119  -27.2497   16.3835 C.3       11 UNK         0.0294 
     31 CB        -53.7158  -28.5280   17.1898 C.3       11 UNK        -0.2019 
     32 N         -52.9191  -26.2948   16.5111 N.am      11 UNK        -0.4493 
     33 C         -52.6246  -25.5439   17.5783 C.2       11 UNK         0.4932 
     34 O         -53.2726  -25.5636   18.6261 O.2       11 UNK        -0.5029 
     35 CA        -51.4118  -24.5998   17.4397 C.3       10 UNK         0.0280 
     36 CB        -50.7542  -24.2485   18.7911 C.3       10 UNK        -0.1976 
     37 N         -50.4276  -25.0880   16.4664 N.am      10 UNK        -0.4242 
     38 C         -49.6690  -26.1924   16.5467 C.2       10 UNK         0.5072 
     39 O         -49.5920  -26.9102   17.5443 O.2       10 UNK        -0.5224 
     40 CA        -48.8846  -26.5887   15.2841 C.3       9 UNK         0.0343 
     41 CB        -49.6358  -27.6857   14.5115 C.3       9 UNK        -0.2003 
     42 N         -48.6387  -25.4523   14.3917 N.am      9 UNK        -0.4272 
     43 C         -47.5873  -24.6274   14.4950 C.2       9 UNK         0.4988 
     44 O         -46.6743  -24.7791   15.3073 O.2       9 UNK        -0.5108 
     45 CA        -47.5457  -23.4205   13.5405 C.3       8 UNK         0.0248 
     46 CB        -46.7349  -23.7492   12.2753 C.3       8 UNK        -0.2001 
     47 N         -48.8802  -22.9157   13.1870 N.am      8 UNK        -0.4140 
     48 C         -49.6537  -22.2313   14.0453 C.2       8 UNK         0.5028 
     49 O         -49.3096  -21.9475   15.1928 O.2       8 UNK        -0.5428 
     50 CA        -51.0548  -21.8042   13.5738 C.3       7 UNK         0.0264 
     51 CB        -51.0278  -20.3872   12.9802 C.3       7 UNK        -0.1988 
     52 N         -51.6921  -22.7238   12.6267 N.am      7 UNK        -0.4454 
     53 C         -52.0614  -23.9777   12.9260 C.2       7 UNK         0.5027 
     54 O         -51.7758  -24.5327   13.9881 O.2       7 UNK        -0.5083 
     55 CA        -52.8388  -24.7539   11.8535 C.3       6 UNK         0.0844 
     56 C56       -53.9556  -23.9183   11.1651 C.3       14 UNK        -0.0967 
     57 S57       -55.4377  -24.9237   10.8150 S.3       14 UNK        -0.2604 
     58 C58       -55.6149  -24.8013    9.0095 C.3       14 UNK         0.0134 
     59 N         -51.8335  -25.2437   10.9199 N.am      6 UNK        -0.4116 
     60 C         -51.6488  -26.5295   10.6113 C.2       5 UNK         0.5034 
     61 O         -52.4149  -27.4451   10.9087 O.2       5 UNK        -0.5045 
     62 CA        -50.3392  -26.8336    9.8895 C.3       5 UNK         0.0224 
     63 CB        -49.1347  -26.6266   10.8316 C.3       5 UNK        -0.1978 
     64 N         -50.3028  -28.1971    9.3735 N.am      5 UNK        -0.4737 
     65 C         -49.4996  -28.5704    8.3757 C.2       4 UNK         0.5027 
     66 O         -48.8117  -27.7756    7.7256 O.2       4 UNK        -0.5211 
     67 CA        -49.4199  -30.0656    8.0485 C.3       4 UNK         0.0297 
     68 CB        -50.4317  -30.4381    6.9538 C.3       4 UNK        -0.1993 
     69 N         -48.0657  -30.2992    7.5554 N.am      4 UNK        -0.4486 
     70 C         -47.1103  -30.9857    8.1907 C.2       3 UNK         0.4961 
     71 O         -47.3157  -31.7488    9.1348 O.2       3 UNK        -0.5105 
     72 CA        -45.6660  -30.7437    7.7087 C.3       3 UNK         0.0299 
     73 CB        -45.2965  -31.7310    6.5899 C.3       3 UNK        -0.1972 
     74 N         -45.4336  -29.3676    7.2456 N.am      3 UNK        -0.4305 
     75 C         -45.4718  -28.2763    8.0272 C.2       2 UNK         0.5006 
     76 O         -45.6492  -28.3171    9.2456 O.2       2 UNK        -0.5106 
     77 CA        -45.3096  -26.9044    7.3522 C.3       2 UNK         0.0296 
     78 CB        -44.9844  -26.9575    5.8434 C.3       2 UNK        -0.2002 
     79 N         -46.5457  -26.1596    7.5690 N.am      2 UNK        -0.4032 
     80 C         -46.6606  -24.8341    7.7036 C.2       1 UNK         0.5000 
     81 O         -45.7163  -24.0420    7.6272 O.2       1 UNK        -0.5238 
     82 H82       -47.7543  -20.6420    9.4674 H         1 UNK         0.0889 
     83 H83       -48.2846  -21.0709   11.0907 H         1 UNK         0.0889 
     84 H84       -49.4658  -20.5605    9.8776 H         1 UNK         0.0889 
     85 H85       -47.3335  -22.3796    8.1540 H         1 UNK         0.3028 
     86 H86       -48.5368  -25.0082    8.6485 H         1 UNK         0.0864 
     87 H87       -48.5779  -23.4905    5.9789 H         1 UNK         0.0720 
     88 H88       -48.7522  -25.2197    6.0588 H         1 UNK         0.0720 
     89 H89       -50.6130  -26.4610    6.4570 H         1 UNK         0.0814 
     90 H90       -51.5306  -25.5924    5.2555 H         1 UNK         0.0814 
     91 H91       -53.2540  -24.2406    7.8089 H         1 UNK         0.1469 
     92 H92       -55.9644  -27.4647    8.5506 H         1 UNK         0.1381 
     93 H93       -52.3875  -28.1611    6.2946 H         1 UNK         0.1206 
     94 H94       -55.4884  -29.4332    6.5112 H         1 UNK         0.0813 
     95 H95       -53.8398  -29.9798    6.6574 H         1 UNK         0.0813 
     96 H96       -52.9564  -31.3770    9.1414 H         1 UNK         0.0638 
     97 H97       -52.8302  -29.6359    9.2645 H         1 UNK         0.0638 
     98 H98       -54.2101  -31.4546   11.2937 H         1 UNK         0.0568 
     99 H99       -50.9167  -30.2347   13.1785 H         1 UNK         0.3450 
    100 H100      -52.3320  -29.2197   13.0211 H         1 UNK         0.3450 
    101 H101      -53.9015  -28.5089   11.2804 H         1 UNK         0.2987 
    102 H102      -55.1935  -27.2524   12.4170 H         1 UNK         0.0766 
    103 H103      -57.5614  -26.8638   13.0124 H         1 UNK         0.0798 
    104 H104      -57.7849  -28.5758   13.3833 H         1 UNK         0.0798 
    105 H105      -57.4567  -28.0613   11.7337 H         1 UNK         0.0798 
    106 H106      -56.1724  -27.6739   15.0582 H         1 UNK         0.3198 
    107 H107      -54.9322  -26.7858   16.7445 H         1 UNK         0.0843 
    108 H108      -52.7835  -28.9951   16.8692 H         1 UNK         0.0831 
    109 H109      -54.5110  -29.2636   17.0623 H         1 UNK         0.0831 
    110 H110      -53.6359  -28.3203   18.2567 H         1 UNK         0.0831 
    111 H111      -52.3708  -26.1891   15.6629 H         1 UNK         0.3133 
    112 H112      -51.8034  -23.6730   17.0180 H         1 UNK         0.0566 
    113 H113      -49.8961  -23.5903   18.6548 H         1 UNK         0.0814 
    114 H114      -51.4581  -23.7310   19.4438 H         1 UNK         0.0814 
    115 H115      -50.4159  -25.1379   19.3233 H         1 UNK         0.0814 
    116 H116      -50.4717  -24.6255   15.5655 H         1 UNK         0.3091 
    117 H117      -47.9318  -27.0071   15.6158 H         1 UNK         0.0702 
    118 H118      -49.9829  -28.4757   15.1793 H         1 UNK         0.0785 
    119 H119      -50.5106  -27.2920   13.9926 H         1 UNK         0.0785 
    120 H120      -48.9877  -28.1576   13.7743 H         1 UNK         0.0785 
    121 H121      -49.3575  -25.2411   13.7153 H         1 UNK         0.2998 
    122 H122      -47.0142  -22.6226   14.0643 H         1 UNK         0.0697 
    123 H123      -47.2289  -24.4869   11.6457 H         1 UNK         0.0825 
    124 H124      -45.7556  -24.1532   12.5358 H         1 UNK         0.0825 
    125 H125      -46.5576  -22.8571   11.6758 H         1 UNK         0.0825 
    126 H126      -49.2220  -23.0973   12.2488 H         1 UNK         0.3029 
    127 H127      -51.6860  -21.7750   14.4651 H         1 UNK         0.0897 
    128 H128      -52.0354  -20.0226   12.7794 H         1 UNK         0.0792 
    129 H129      -50.4657  -20.3470   12.0489 H         1 UNK         0.0792 
    130 H130      -50.5636  -19.6823   13.6717 H         1 UNK         0.0792 
    131 H131      -51.9091  -22.3518   11.7132 H         1 UNK         0.3086 
    132 H132      -53.2991  -25.5903   12.3841 H         1 UNK         0.0583 
    133 H133      -54.3001  -23.1055   11.8081 H         1 UNK         0.1020 
    134 H134      -53.5913  -23.4420   10.2535 H         1 UNK         0.1020 
    135 H135      -56.6481  -25.0346    8.7480 H         1 UNK         0.0694 
    136 H136      -55.4507  -23.7710    8.6902 H         1 UNK         0.0694 
    137 H137      -51.1284  -24.5710   10.6332 H         1 UNK         0.2989 
    138 H138      -50.3021  -26.1418    9.0502 H         1 UNK         0.1055 
    139 H139      -49.1636  -25.6529   11.3163 H         1 UNK         0.0806 
    140 H140      -48.1860  -26.6969   10.2994 H         1 UNK         0.0806 
    141 H141      -49.1209  -27.3789   11.6183 H         1 UNK         0.0806 
    142 H142      -50.9019  -28.8564    9.8518 H         1 UNK         0.3061 
    143 H143      -49.6197  -30.6483    8.9508 H         1 UNK         0.0734 
    144 H144      -50.3411  -31.4875    6.6737 H         1 UNK         0.0832 
    145 H145      -51.4532  -30.2825    7.2986 H         1 UNK         0.0832 
    146 H146      -50.2949  -29.8378    6.0533 H         1 UNK         0.0832 
    147 H147      -47.7686  -29.6429    6.8466 H         1 UNK         0.3156 
    148 H148      -45.0016  -30.9264    8.5560 H         1 UNK         0.0589 
    149 H149      -45.4373  -32.7617    6.9186 H         1 UNK         0.0808 
    150 H150      -45.9122  -31.5863    5.7012 H         1 UNK         0.0808 
    151 H151      -44.2517  -31.6269    6.2967 H         1 UNK         0.0808 
    152 H152      -45.2675  -29.2421    6.2574 H         1 UNK         0.3098 
    153 H153      -44.4898  -26.3991    7.8671 H         1 UNK         0.0720 
    154 H154      -44.0686  -27.5186    5.6529 H         1 UNK         0.0791 
    155 H155      -44.8264  -25.9548    5.4456 H         1 UNK         0.0791 
    156 H156      -45.7901  -27.4125    5.2657 H         1 UNK         0.0791 
    157 H157      -47.3830  -26.7381    7.6668 H         1 UNK         0.3028 
@<TRIPOS>BOND
     1    1    2 1    
     2    1   82 1    
     3    1   83 1    
     4    1   84 1    
     5    2    3 2    
     6    2    4 am   BACKBONE|DICT|INTERRES
     7    4    5 1    
     8    4   85 1    
     9    5    6 1    
    10    5   80 1    
    11    5   86 1    
    12    6    7 1    
    13    6   87 1    
    14    6   88 1    
    15    7    8 1    
    16    8    9 1    
    17    8   89 1    
    18    8   90 1    
    19    9   10 ar   
    20    9   14 ar   
    21   10   11 ar   
    22   10   91 1    
    23   11   12 ar   
    24   11   58 1    
    25   12   13 ar   
    26   12   92 1    
    27   13   14 ar   
    28   13   15 1    
    29   14   93 1    
    30   15   16 1    
    31   15   94 1    
    32   15   95 1    
    33   16   17 1    
    34   17   18 1    
    35   17   96 1    
    36   17   97 1    
    37   18   19 1    
    38   18   22 1    
    39   18   98 1    
    40   19   20 am   BACKBONE|DICT|INTERRES
    41   19   21 2    
    42   20   99 1    
    43   20  100 1    
    44   22   23 am   BACKBONE|DICT|INTERRES
    45   22  101 1    
    46   23   24 2    
    47   23   25 1    
    48   25   26 1    
    49   25   27 1    
    50   25  102 1    
    51   26  103 1    
    52   26  104 1    
    53   26  105 1    
    54   27   28 am   BACKBONE|DICT|INTERRES
    55   27  106 1    
    56   28   29 2    
    57   28   30 1    
    58   30   31 1    
    59   30   32 1    
    60   30  107 1    
    61   31  108 1    
    62   31  109 1    
    63   31  110 1    
    64   32   33 am   BACKBONE|DICT|INTERRES
    65   32  111 1    
    66   33   34 2    
    67   33   35 1    
    68   35   36 1    
    69   35   37 1    
    70   35  112 1    
    71   36  113 1    
    72   36  114 1    
    73   36  115 1    
    74   37   38 am   BACKBONE|DICT|INTERRES
    75   37  116 1    
    76   38   39 2    
    77   38   40 1    
    78   40   41 1    
    79   40   42 1    
    80   40  117 1    
    81   41  118 1    
    82   41  119 1    
    83   41  120 1    
    84   42   43 am   BACKBONE|DICT|INTERRES
    85   42  121 1    
    86   43   44 2    
    87   43   45 1    
    88   45   46 1    
    89   45   47 1    
    90   45  122 1    
    91   46  123 1    
    92   46  124 1    
    93   46  125 1    
    94   47   48 am   BACKBONE|DICT|INTERRES
    95   47  126 1    
    96   48   49 2    
    97   48   50 1    
    98   50   51 1    
    99   50   52 1    
   100   50  127 1    
   101   51  128 1    
   102   51  129 1    
   103   51  130 1    
   104   52   53 am   BACKBONE|DICT|INTERRES
   105   52  131 1    
   106   53   54 2    
   107   53   55 1    
   108   55   56 1    
   109   55   59 1    
   110   55  132 1    
   111   56   57 1    
   112   56  133 1    
   113   56  134 1    
   114   57   58 1    
   115   58  135 1    
   116   58  136 1    
   117   59   60 am   BACKBONE|DICT|INTERRES
   118   59  137 1    
   119   60   61 2    
   120   60   62 1    
   121   62   63 1    
   122   62   64 1    
   123   62  138 1    
   124   63  139 1    
   125   63  140 1    
   126   63  141 1    
   127   64   65 am   BACKBONE|DICT|INTERRES
   128   64  142 1    
   129   65   66 2    
   130   65   67 1    
   131   67   68 1    
   132   67   69 1    
   133   67  143 1    
   134   68  144 1    
   135   68  145 1    
   136   68  146 1    
   137   69   70 am   BACKBONE|DICT|INTERRES
   138   69  147 1    
   139   70   71 2    
   140   70   72 1    
   141   72   73 1    
   142   72   74 1    
   143   72  148 1    
   144   73  149 1    
   145   73  150 1    
   146   73  151 1    
   147   74   75 am   BACKBONE|DICT|INTERRES
   148   74  152 1    
   149   75   76 2    
   150   75   77 1    
   151   77   78 1    
   152   77   79 1    
   153   77  153 1    
   154   78  154 1    
   155   78  155 1    
   156   78  156 1    
   157   79   80 am   BACKBONE|DICT|INTERRES
   158   79  157 1    
   159   80   81 2    
@<TRIPOS>SUBSTRUCTURE
     1 UNK         1 GROUP             0       ****    0 ROOT    
