@<TRIPOS>MOLECULE
3R207
157   159    1
SMALL
USER_CHARGES


@<TRIPOS>ATOM
      1 CA        -48.1628  -25.5536    3.2812 C.3       0 UNK        -0.1975 
      2 C         -48.9543  -26.0616    4.4771 C.2       0 UNK         0.4852 
      3 O         -49.4914  -25.2552    5.2350 O.2       0 UNK        -0.5216 
      4 N         -49.0210  -27.3861    4.6472 N.am      1 UNK        -0.4461 
      5 CA        -49.6804  -28.0643    5.7635 C.3       1 UNK         0.0864 
      6 C6        -50.6843  -29.1407    5.2744 C.3       14 UNK        -0.0898 
      7 S7        -52.0449  -28.4433    4.2791 S.3       14 UNK        -0.2598 
      8 C8        -53.4785  -28.6974    5.3713 C.3       14 UNK         0.0286 
      9 C9        -53.4537  -27.7602    6.5690 C.ar      14 UNK        -0.0844 
     10 C10       -53.7950  -26.4145    6.4089 C.ar      14 UNK        -0.0881 
     11 C11       -53.7981  -25.5461    7.5038 C.ar      14 UNK        -0.0643 
     12 C12       -53.4803  -26.0410    8.7727 C.ar      14 UNK        -0.0930 
     13 C13       -53.0928  -27.3743    8.9376 C.ar      14 UNK        -0.0827 
     14 C14       -53.0929  -28.2325    7.8342 C.ar      14 UNK        -0.1249 
     15 C15       -52.6132  -27.8784   10.2892 C.3       14 UNK         0.0141 
     16 S16       -53.9184  -28.7573   11.1998 S.3       14 UNK        -0.2313 
     17 C17       -52.8853  -29.8364   12.2458 C.3       14 UNK        -0.0915 
     18 CA        -53.6859  -30.5887   13.3399 C.3       13 UNK         0.0968 
     19 C         -52.8163  -31.6783   14.0368 C.2       13 UNK         0.5732 
     20 N         -52.6905  -31.7084   15.3592 N.am      13 UNK        -0.7310 
     21 O         -52.2502  -32.5331   13.3594 O.2       13 UNK        -0.5035 
     22 N         -54.3390  -29.6634   14.2792 N.am      13 UNK        -0.4233 
     23 C         -55.4893  -29.9321   14.9114 C.2       13 UNK         0.4989 
     24 O         -56.1638  -30.9413   14.6954 O.2       13 UNK        -0.4996 
     25 CA        -55.9661  -28.9108   15.9644 C.3       12 UNK         0.0216 
     26 CB        -57.0104  -29.4989   16.9375 C.3       12 UNK        -0.1964 
     27 N         -54.8755  -28.2738   16.7132 N.am      12 UNK        -0.4276 
     28 C         -53.9245  -28.8748   17.4482 C.2       12 UNK         0.5020 
     29 O         -53.8353  -30.0974   17.5696 O.2       12 UNK        -0.5489 
     30 CA        -52.8790  -27.9747   18.1383 C.3       11 UNK         0.0294 
     31 CB        -51.4626  -28.5674   18.0179 C.3       11 UNK        -0.2019 
     32 N         -52.8725  -26.6294   17.5628 N.am      11 UNK        -0.4493 
     33 C         -53.4103  -25.5345   18.1189 C.2       11 UNK         0.4932 
     34 O         -53.8903  -25.5070   19.2519 O.2       11 UNK        -0.5029 
     35 CA        -53.4553  -24.2581   17.2532 C.3       10 UNK         0.0280 
     36 CB        -52.2996  -23.3172   17.6270 C.3       10 UNK        -0.1976 
     37 N         -53.4160  -24.5316   15.8114 N.am      10 UNK        -0.4242 
     38 C         -54.3760  -25.1882   15.1374 C.2       10 UNK         0.5072 
     39 O         -55.4404  -25.5372   15.6473 O.2       10 UNK        -0.5224 
     40 CA        -54.0773  -25.6107   13.6861 C.3       9 UNK         0.0343 
     41 CB        -54.7244  -24.6308   12.6971 C.3       9 UNK        -0.2003 
     42 N         -52.6429  -25.7374   13.4060 N.am      9 UNK        -0.4272 
     43 C         -51.8304  -26.6150   14.0187 C.2       9 UNK         0.4988 
     44 O         -52.2512  -27.4899   14.7770 O.2       9 UNK        -0.5108 
     45 CA        -50.3057  -26.4786   13.8196 C.3       8 UNK         0.0248 
     46 CB        -49.7383  -27.6648   13.0270 C.3       8 UNK        -0.2001 
     47 N         -49.8845  -25.2276   13.1836 N.am      8 UNK        -0.4140 
     48 C         -50.0436  -24.0031   13.7067 C.2       8 UNK         0.5028 
     49 O         -50.5199  -23.7966   14.8236 O.2       8 UNK        -0.5428 
     50 CA        -49.6888  -22.8072   12.8025 C.3       7 UNK         0.0264 
     51 CB        -48.2789  -22.2942   13.1240 C.3       7 UNK        -0.1988 
     52 N         -49.8150  -23.0714   11.3577 N.am      7 UNK        -0.4454 
     53 C         -50.9648  -23.4434   10.7664 C.2       7 UNK         0.5027 
     54 O         -51.9877  -23.6897   11.4054 O.2       7 UNK        -0.5083 
     55 CA        -51.0311  -23.5823    9.2327 C.3       6 UNK         0.0844 
     56 C56       -52.0960  -22.6209    8.6460 C.3       14 UNK        -0.0967 
     57 S57       -52.6233  -23.0903    6.9638 S.3       14 UNK        -0.2604 
     58 C58       -54.1260  -24.0733    7.3008 C.3       14 UNK         0.0134 
     59 N         -49.7309  -23.4588    8.5750 N.am      6 UNK        -0.4116 
     60 C         -48.8559  -24.4647    8.4537 C.2       5 UNK         0.5034 
     61 O         -49.0555  -25.6020    8.8875 O.2       5 UNK        -0.5045 
     62 CA        -47.5218  -24.1647    7.7467 C.3       5 UNK         0.0224 
     63 CB        -47.4186  -22.7514    7.1279 C.3       5 UNK        -0.1978 
     64 N         -46.3838  -24.4344    8.6294 N.am      5 UNK        -0.4737 
     65 C         -46.1203  -23.8629    9.8140 C.2       4 UNK         0.5027 
     66 O         -46.8224  -22.9783   10.3067 O.2       4 UNK        -0.5211 
     67 CA        -44.8838  -24.3767   10.5822 C.3       4 UNK         0.0297 
     68 CB        -45.0591  -24.2683   12.1075 C.3       4 UNK        -0.1993 
     69 N         -44.5850  -25.7698   10.2431 N.am      4 UNK        -0.4486 
     70 C         -43.6098  -26.1880    9.4251 C.2       3 UNK         0.4961 
     71 O         -42.7676  -25.4455    8.9207 O.2       3 UNK        -0.5105 
     72 CA        -43.5947  -27.6921    9.0814 C.3       3 UNK         0.0299 
     73 CB        -42.6148  -28.4415    9.9984 C.3       3 UNK        -0.1972 
     74 N         -44.9166  -28.3315    9.1552 N.am      3 UNK        -0.4305 
     75 C         -45.9720  -27.9924    8.4003 C.2       2 UNK         0.5006 
     76 O         -45.9219  -27.1281    7.5215 O.2       2 UNK        -0.5106 
     77 CA        -47.3008  -28.7003    8.7261 C.3       2 UNK         0.0296 
     78 CB        -47.7299  -28.4474   10.1833 C.3       2 UNK        -0.2002 
     79 N         -48.3761  -28.2488    7.8400 N.am      2 UNK        -0.4032 
     80 C         -48.5672  -28.7144    6.5996 C.2       1 UNK         0.5000 
     81 O         -47.8971  -29.6228    6.0989 O.2       1 UNK        -0.5238 
     82 H82       -47.7419  -26.3690    2.6931 H         1 UNK         0.0889 
     83 H83       -47.3432  -24.9189    3.6175 H         1 UNK         0.0889 
     84 H84       -48.8067  -24.9630    2.6301 H         1 UNK         0.0889 
     85 H85       -48.5231  -27.9978    4.0154 H         1 UNK         0.3028 
     86 H86       -50.2226  -27.3506    6.3893 H         1 UNK         0.0864 
     87 H87       -51.0997  -29.6858    6.1236 H         1 UNK         0.0720 
     88 H88       -50.1807  -29.8883    4.6583 H         1 UNK         0.0720 
     89 H89       -54.3906  -28.5232    4.7986 H         1 UNK         0.0814 
     90 H90       -53.5183  -29.7400    5.6908 H         1 UNK         0.0814 
     91 H91       -54.0458  -26.0404    5.4255 H         1 UNK         0.1469 
     92 H92       -53.4843  -25.3741    9.6232 H         1 UNK         0.1381 
     93 H93       -52.8049  -29.2671    7.9623 H         1 UNK         0.1206 
     94 H94       -52.2503  -27.0480   10.8955 H         1 UNK         0.0813 
     95 H95       -51.7593  -28.5404   10.1362 H         1 UNK         0.0813 
     96 H96       -52.3882  -30.5443   11.5798 H         1 UNK         0.0638 
     97 H97       -52.0960  -29.2422   12.7014 H         1 UNK         0.0638 
     98 H98       -54.4659  -31.1469   12.8189 H         1 UNK         0.0568 
     99 H99       -53.1695  -31.0442   15.9582 H         1 UNK         0.3450 
    100 H100      -52.1259  -32.4309   15.7755 H         1 UNK         0.3450 
    101 H101      -53.8023  -28.8416   14.5332 H         1 UNK         0.2987 
    102 H102      -56.4547  -28.1134   15.4026 H         1 UNK         0.0766 
    103 H103      -57.3527  -28.7499   17.6516 H         1 UNK         0.0798 
    104 H104      -57.8902  -29.8574   16.4017 H         1 UNK         0.0798 
    105 H105      -56.6068  -30.3405   17.5016 H         1 UNK         0.0798 
    106 H106      -54.8618  -27.2614   16.6531 H         1 UNK         0.3198 
    107 H107      -53.1425  -27.9330   19.1970 H         1 UNK         0.0843 
    108 H108      -51.1696  -28.7054   16.9763 H         1 UNK         0.0831 
    109 H109      -51.4018  -29.5418   18.5043 H         1 UNK         0.0831 
    110 H110      -50.7217  -27.9245   18.4930 H         1 UNK         0.0831 
    111 H111      -52.5283  -26.5763   16.6104 H         1 UNK         0.3133 
    112 H112      -54.3954  -23.7464   17.4694 H         1 UNK         0.0566 
    113 H113      -51.3285  -23.7807   17.4484 H         1 UNK         0.0814 
    114 H114      -52.3421  -23.0471   18.6831 H         1 UNK         0.0814 
    115 H115      -52.3386  -22.3908   17.0537 H         1 UNK         0.0814 
    116 H116      -52.5578  -24.2833   15.3292 H         1 UNK         0.3091 
    117 H117      -54.5304  -26.5923   13.5323 H         1 UNK         0.0702 
    118 H118      -54.5853  -24.9587   11.6677 H         1 UNK         0.0785 
    119 H119      -54.3077  -23.6273   12.7914 H         1 UNK         0.0785 
    120 H120      -55.7990  -24.5556   12.8688 H         1 UNK         0.0785 
    121 H121      -52.2477  -25.0395   12.7815 H         1 UNK         0.2998 
    122 H122      -49.8610  -26.5006   14.8167 H         1 UNK         0.0697 
    123 H123      -50.1381  -27.7030   12.0142 H         1 UNK         0.0825 
    124 H124      -49.9765  -28.6109   13.5149 H         1 UNK         0.0825 
    125 H125      -48.6518  -27.6099   12.9588 H         1 UNK         0.0825 
    126 H126      -49.5029  -25.2945   12.2513 H         1 UNK         0.3029 
    127 H127      -50.3967  -22.0109   13.0423 H         1 UNK         0.0897 
    128 H128      -48.0205  -21.4241   12.5201 H         1 UNK         0.0792 
    129 H129      -48.2003  -21.9988   14.1712 H         1 UNK         0.0792 
    130 H130      -47.5283  -23.0623   12.9468 H         1 UNK         0.0792 
    131 H131      -48.9859  -22.9211   10.7926 H         1 UNK         0.3086 
    132 H132      -51.3736  -24.5994    9.0588 H         1 UNK         0.0583 
    133 H133      -52.9860  -22.5748    9.2769 H         1 UNK         0.1020 
    134 H134      -51.7114  -21.6000    8.6174 H         1 UNK         0.1020 
    135 H135      -54.6626  -23.6780    8.1643 H         1 UNK         0.0694 
    136 H136      -54.8054  -23.9639    6.4541 H         1 UNK         0.0694 
    137 H137      -49.4947  -22.5559    8.1916 H         1 UNK         0.2989 
    138 H138      -47.4492  -24.8864    6.9323 H         1 UNK         0.1055 
    139 H139      -46.4758  -22.6309    6.5942 H         1 UNK         0.0806 
    140 H140      -47.4721  -21.9615    7.8778 H         1 UNK         0.0806 
    141 H141      -48.2150  -22.5821    6.4015 H         1 UNK         0.0806 
    142 H142      -45.8027  -25.2117    8.3346 H         1 UNK         0.3061 
    143 H143      -44.0490  -23.7338   10.2959 H         1 UNK         0.0734 
    144 H144      -45.1954  -23.2300   12.4121 H         1 UNK         0.0832 
    145 H145      -45.9238  -24.8340   12.4561 H         1 UNK         0.0832 
    146 H146      -44.1805  -24.6411   12.6340 H         1 UNK         0.0832 
    147 H147      -45.2305  -26.4615   10.5954 H         1 UNK         0.3156 
    148 H148      -43.2400  -27.7871    8.0529 H         1 UNK         0.0589 
    149 H149      -42.9279  -28.4042   11.0426 H         1 UNK         0.0808 
    150 H150      -42.5226  -29.4891    9.7110 H         1 UNK         0.0808 
    151 H151      -41.6167  -28.0044    9.9425 H         1 UNK         0.0808 
    152 H152      -45.0270  -29.0603    9.8461 H         1 UNK         0.3098 
    153 H153      -47.1525  -29.7739    8.5914 H         1 UNK         0.0720 
    154 H154      -48.6963  -28.9072   10.3900 H         1 UNK         0.0791 
    155 H155      -47.0203  -28.8742   10.8925 H         1 UNK         0.0791 
    156 H156      -47.8127  -27.3826   10.4035 H         1 UNK         0.0791 
    157 H157      -48.8800  -27.4214    8.1476 H         1 UNK         0.3028 
@<TRIPOS>BOND
     1    1    2 1    
     2    1   82 1    
     3    1   83 1    
     4    1   84 1    
     5    2    3 2    
     6    2    4 am   BACKBONE|DICT|INTERRES
     7    4    5 1    
     8    4   85 1    
     9    5    6 1    
    10    5   80 1    
    11    5   86 1    
    12    6    7 1    
    13    6   87 1    
    14    6   88 1    
    15    7    8 1    
    16    8    9 1    
    17    8   89 1    
    18    8   90 1    
    19    9   10 ar   
    20    9   14 ar   
    21   10   11 ar   
    22   10   91 1    
    23   11   12 ar   
    24   11   58 1    
    25   12   13 ar   
    26   12   92 1    
    27   13   14 ar   
    28   13   15 1    
    29   14   93 1    
    30   15   16 1    
    31   15   94 1    
    32   15   95 1    
    33   16   17 1    
    34   17   18 1    
    35   17   96 1    
    36   17   97 1    
    37   18   19 1    
    38   18   22 1    
    39   18   98 1    
    40   19   20 am   BACKBONE|DICT|INTERRES
    41   19   21 2    
    42   20   99 1    
    43   20  100 1    
    44   22   23 am   BACKBONE|DICT|INTERRES
    45   22  101 1    
    46   23   24 2    
    47   23   25 1    
    48   25   26 1    
    49   25   27 1    
    50   25  102 1    
    51   26  103 1    
    52   26  104 1    
    53   26  105 1    
    54   27   28 am   BACKBONE|DICT|INTERRES
    55   27  106 1    
    56   28   29 2    
    57   28   30 1    
    58   30   31 1    
    59   30   32 1    
    60   30  107 1    
    61   31  108 1    
    62   31  109 1    
    63   31  110 1    
    64   32   33 am   BACKBONE|DICT|INTERRES
    65   32  111 1    
    66   33   34 2    
    67   33   35 1    
    68   35   36 1    
    69   35   37 1    
    70   35  112 1    
    71   36  113 1    
    72   36  114 1    
    73   36  115 1    
    74   37   38 am   BACKBONE|DICT|INTERRES
    75   37  116 1    
    76   38   39 2    
    77   38   40 1    
    78   40   41 1    
    79   40   42 1    
    80   40  117 1    
    81   41  118 1    
    82   41  119 1    
    83   41  120 1    
    84   42   43 am   BACKBONE|DICT|INTERRES
    85   42  121 1    
    86   43   44 2    
    87   43   45 1    
    88   45   46 1    
    89   45   47 1    
    90   45  122 1    
    91   46  123 1    
    92   46  124 1    
    93   46  125 1    
    94   47   48 am   BACKBONE|DICT|INTERRES
    95   47  126 1    
    96   48   49 2    
    97   48   50 1    
    98   50   51 1    
    99   50   52 1    
   100   50  127 1    
   101   51  128 1    
   102   51  129 1    
   103   51  130 1    
   104   52   53 am   BACKBONE|DICT|INTERRES
   105   52  131 1    
   106   53   54 2    
   107   53   55 1    
   108   55   56 1    
   109   55   59 1    
   110   55  132 1    
   111   56   57 1    
   112   56  133 1    
   113   56  134 1    
   114   57   58 1    
   115   58  135 1    
   116   58  136 1    
   117   59   60 am   BACKBONE|DICT|INTERRES
   118   59  137 1    
   119   60   61 2    
   120   60   62 1    
   121   62   63 1    
   122   62   64 1    
   123   62  138 1    
   124   63  139 1    
   125   63  140 1    
   126   63  141 1    
   127   64   65 am   BACKBONE|DICT|INTERRES
   128   64  142 1    
   129   65   66 2    
   130   65   67 1    
   131   67   68 1    
   132   67   69 1    
   133   67  143 1    
   134   68  144 1    
   135   68  145 1    
   136   68  146 1    
   137   69   70 am   BACKBONE|DICT|INTERRES
   138   69  147 1    
   139   70   71 2    
   140   70   72 1    
   141   72   73 1    
   142   72   74 1    
   143   72  148 1    
   144   73  149 1    
   145   73  150 1    
   146   73  151 1    
   147   74   75 am   BACKBONE|DICT|INTERRES
   148   74  152 1    
   149   75   76 2    
   150   75   77 1    
   151   77   78 1    
   152   77   79 1    
   153   77  153 1    
   154   78  154 1    
   155   78  155 1    
   156   78  156 1    
   157   79   80 am   BACKBONE|DICT|INTERRES
   158   79  157 1    
   159   80   81 2    
@<TRIPOS>SUBSTRUCTURE
     1 UNK         1 GROUP             0       ****    0 ROOT    
