@<TRIPOS>MOLECULE
3R207
157   159    1
SMALL
USER_CHARGES


@<TRIPOS>ATOM
      1 CA        -44.2686  -28.0190   10.4852 C.3       0 UNK        -0.1975 
      2 C         -45.1266  -28.9704    9.6668 C.2       0 UNK         0.4852 
      3 O         -44.6194  -29.9904    9.1984 O.2       0 UNK        -0.5216 
      4 N         -46.4179  -28.6542    9.5008 N.am      1 UNK        -0.4461 
      5 CA        -47.3851  -29.4894    8.7761 C.3       1 UNK         0.0864 
      6 C6        -48.7561  -29.5631    9.4945 C.3       14 UNK        -0.0898 
      7 S7        -49.6019  -27.9621    9.7099 S.3       14 UNK        -0.2598 
      8 C8        -50.8392  -28.0186    8.3730 C.3       14 UNK         0.0286 
      9 C9        -51.9032  -26.9463    8.5588 C.ar      14 UNK        -0.0844 
     10 C10       -51.5703  -25.5956    8.4179 C.ar      14 UNK        -0.0881 
     11 C11       -52.5239  -24.5957    8.6438 C.ar      14 UNK        -0.0643 
     12 C12       -53.8385  -24.9690    8.9414 C.ar      14 UNK        -0.0930 
     13 C13       -54.1997  -26.3165    9.0305 C.ar      14 UNK        -0.0827 
     14 C14       -53.2225  -27.3014    8.8594 C.ar      14 UNK        -0.1249 
     15 C15       -55.6553  -26.6985    9.2661 C.3       14 UNK         0.0141 
     16 S16       -56.0418  -26.8934   11.0323 S.3       14 UNK        -0.2313 
     17 C17       -55.4504  -28.5890   11.3550 C.3       14 UNK        -0.0915 
     18 CA        -56.3049  -29.3371   12.4154 C.3       13 UNK         0.0968 
     19 C         -55.8548  -30.8175   12.5907 C.2       13 UNK         0.5732 
     20 N         -55.6994  -31.3377   13.8039 N.am      13 UNK        -0.7310 
     21 O         -55.6595  -31.5218   11.6030 O.2       13 UNK        -0.5035 
     22 N         -56.3559  -28.6061   13.6904 N.am      13 UNK        -0.4233 
     23 C         -57.4667  -28.3810   14.4018 C.2       13 UNK         0.4989 
     24 O         -58.5944  -28.7132   14.0307 O.2       13 UNK        -0.4996 
     25 CA        -57.2930  -27.6594   15.7546 C.3       12 UNK         0.0216 
     26 CB        -58.4921  -27.8729   16.7035 C.3       12 UNK        -0.1964 
     27 N         -56.0342  -27.9702   16.4446 N.am      12 UNK        -0.4276 
     28 C         -55.5922  -29.1764   16.8388 C.2       12 UNK         0.5020 
     29 O         -56.1997  -30.2256   16.6190 O.2       12 UNK        -0.5489 
     30 CA        -54.2359  -29.2296   17.5719 C.3       11 UNK         0.0294 
     31 CB        -53.4306  -30.4846   17.1858 C.3       11 UNK        -0.2019 
     32 N         -53.4283  -28.0462   17.2747 N.am      11 UNK        -0.4493 
     33 C         -53.2213  -27.0057   18.0940 C.2       11 UNK         0.4932 
     34 O         -53.6175  -26.9624   19.2584 O.2       11 UNK        -0.5029 
     35 CA        -52.4763  -25.7879   17.5090 C.3       10 UNK         0.0280 
     36 CB        -51.0059  -25.7899   17.9554 C.3       10 UNK        -0.1976 
     37 N         -52.5403  -25.7177   16.0449 N.am      10 UNK        -0.4242 
     38 C         -53.6625  -25.5005   15.3410 C.2       10 UNK         0.5072 
     39 O         -54.7498  -25.2427   15.8579 O.2       10 UNK        -0.5224 
     40 CA        -53.5873  -25.6974   13.8167 C.3       9 UNK         0.0343 
     41 CB        -53.3892  -24.3609   13.0881 C.3       9 UNK        -0.2003 
     42 N         -52.5532  -26.6575   13.4127 N.am      9 UNK        -0.4272 
     43 C         -52.6042  -27.9675   13.7013 C.2       9 UNK         0.4988 
     44 O         -53.5349  -28.4770   14.3243 O.2       9 UNK        -0.5108 
     45 CA        -51.4396  -28.8644   13.2517 C.3       8 UNK         0.0248 
     46 CB        -51.8119  -29.6351   11.9760 C.3       8 UNK        -0.2001 
     47 N         -50.1887  -28.1331   13.0432 N.am      8 UNK        -0.4140 
     48 C         -49.4495  -27.6145   14.0343 C.2       8 UNK         0.5028 
     49 O         -49.7468  -27.7021   15.2255 O.2       8 UNK        -0.5428 
     50 CA        -48.1872  -26.8370   13.6275 C.3       7 UNK         0.0264 
     51 CB        -46.9987  -27.7940   13.4401 C.3       7 UNK        -0.1988 
     52 N         -48.3604  -26.0424   12.4101 N.am      7 UNK        -0.4454 
     53 C         -49.2321  -25.0405   12.2414 C.2       7 UNK         0.5027 
     54 O         -50.0042  -24.6628   13.1230 O.2       7 UNK        -0.5083 
     55 CA        -49.2432  -24.3662   10.8522 C.3       6 UNK         0.0844 
     56 C56       -50.3387  -23.2764   10.7179 C.3       14 UNK        -0.0967 
     57 S57       -50.4714  -22.6585    9.0034 S.3       14 UNK        -0.2604 
     58 C58       -52.1829  -23.1080    8.5439 C.3       14 UNK         0.0134 
     59 N         -47.9243  -23.8549   10.4700 N.am      6 UNK        -0.4116 
     60 C         -46.8665  -24.5716   10.0732 C.2       5 UNK         0.5034 
     61 O         -46.8455  -25.8057   10.0353 O.2       5 UNK        -0.5045 
     62 CA        -45.6431  -23.7513    9.6304 C.3       5 UNK         0.0224 
     63 CB        -44.3904  -24.6118    9.3910 C.3       5 UNK        -0.1978 
     64 N         -45.9519  -22.9952    8.4148 N.am      5 UNK        -0.4737 
     65 C         -46.5850  -21.8127    8.3948 C.2       4 UNK         0.5027 
     66 O         -46.9581  -21.2391    9.4195 O.2       4 UNK        -0.5211 
     67 CA        -46.8437  -21.1438    7.0318 C.3       4 UNK         0.0297 
     68 CB        -46.0179  -19.8527    6.9020 C.3       4 UNK        -0.1993 
     69 N         -46.5408  -22.0132    5.8932 N.am      4 UNK        -0.4486 
     70 C         -47.3676  -22.9416    5.3968 C.2       3 UNK         0.4961 
     71 O         -48.5118  -23.1314    5.8110 O.2       3 UNK        -0.5105 
     72 CA        -46.8370  -23.8119    4.2382 C.3       3 UNK         0.0299 
     73 CB        -45.3544  -23.5588    3.8748 C.3       3 UNK        -0.1972 
     74 N         -47.0618  -25.2413    4.4815 N.am      3 UNK        -0.4305 
     75 C         -46.6349  -25.9523    5.5348 C.2       2 UNK         0.5006 
     76 O         -45.9716  -25.4904    6.4670 O.2       2 UNK        -0.5106 
     77 CA        -46.9746  -27.4451    5.5150 C.3       2 UNK         0.0296 
     78 CB        -45.9778  -28.2164    4.6272 C.3       2 UNK        -0.2002 
     79 N         -46.9400  -27.9635    6.8794 N.am      2 UNK        -0.4032 
     80 C         -47.5210  -29.0987    7.2892 C.2       1 UNK         0.5000 
     81 O         -48.1523  -29.8434    6.5360 O.2       1 UNK        -0.5238 
     82 H82       -43.5530  -27.5107    9.8402 H         1 UNK         0.0889 
     83 H83       -43.7121  -28.5726   11.2409 H         1 UNK         0.0889 
     84 H84       -44.8692  -27.2698   10.9982 H         1 UNK         0.0889 
     85 H85       -46.7640  -27.7594    9.8367 H         1 UNK         0.3028 
     86 H86       -47.0092  -30.5147    8.7599 H         1 UNK         0.0864 
     87 H87       -49.4179  -30.2645    8.9834 H         1 UNK         0.0720 
     88 H88       -48.6105  -29.9861   10.4895 H         1 UNK         0.0720 
     89 H89       -51.3014  -29.0065    8.3455 H         1 UNK         0.0814 
     90 H90       -50.3439  -27.8801    7.4111 H         1 UNK         0.0814 
     91 H91       -50.5578  -25.3270    8.1510 H         1 UNK         0.1469 
     92 H92       -54.5913  -24.2064    9.0879 H         1 UNK         0.1381 
     93 H93       -53.4949  -28.3444    8.9439 H         1 UNK         0.1206 
     94 H94       -56.3066  -25.9248    8.8569 H         1 UNK         0.0813 
     95 H95       -55.9040  -27.6103    8.7213 H         1 UNK         0.0813 
     96 H96       -55.4558  -29.1439   10.4158 H         1 UNK         0.0638 
     97 H97       -54.4097  -28.5290   11.6615 H         1 UNK         0.0638 
     98 H98       -57.3134  -29.4046   12.0046 H         1 UNK         0.0568 
     99 H99       -55.8880  -30.7955   14.6388 H         1 UNK         0.3450 
    100 H100      -55.4149  -32.2998   13.8884 H         1 UNK         0.3450 
    101 H101      -55.4497  -28.3729   14.0847 H         1 UNK         0.2987 
    102 H102      -57.2492  -26.5955   15.5167 H         1 UNK         0.0766 
    103 H103      -58.6327  -28.9272   16.9446 H         1 UNK         0.0798 
    104 H104      -58.3594  -27.3296   17.6390 H         1 UNK         0.0798 
    105 H105      -59.4191  -27.5153   16.2534 H         1 UNK         0.0798 
    106 H106      -55.4418  -27.1677   16.6244 H         1 UNK         0.3198 
    107 H107      -54.4536  -29.2806   18.6406 H         1 UNK         0.0843 
    108 H108      -53.9631  -31.3945   17.4653 H         1 UNK         0.0831 
    109 H109      -52.4657  -30.5084   17.6923 H         1 UNK         0.0831 
    110 H110      -53.2472  -30.5319   16.1116 H         1 UNK         0.0831 
    111 H111      -53.1016  -27.9850   16.3171 H         1 UNK         0.3133 
    112 H112      -52.9518  -24.8893   17.9076 H         1 UNK         0.0566 
    113 H113      -50.4746  -24.9138   17.5831 H         1 UNK         0.0814 
    114 H114      -50.9295  -25.7763   19.0435 H         1 UNK         0.0814 
    115 H115      -50.4784  -26.6776   17.6046 H         1 UNK         0.0814 
    116 H116      -51.6913  -25.9396   15.5416 H         1 UNK         0.3091 
    117 H117      -54.5505  -26.1027   13.5017 H         1 UNK         0.0702 
    118 H118      -53.3802  -24.4999   12.0068 H         1 UNK         0.0785 
    119 H119      -52.4610  -23.8705   13.3800 H         1 UNK         0.0785 
    120 H120      -54.2038  -23.6726   13.3168 H         1 UNK         0.0785 
    121 H121      -51.7450  -26.2866   12.9327 H         1 UNK         0.2998 
    122 H122      -51.2717  -29.5952   14.0458 H         1 UNK         0.0697 
    123 H123      -52.0392  -28.9621   11.1490 H         1 UNK         0.0825 
    124 H124      -52.6917  -30.2584   12.1414 H         1 UNK         0.0825 
    125 H125      -51.0056  -30.2969   11.6599 H         1 UNK         0.0825 
    126 H126      -49.8810  -28.0096   12.0868 H         1 UNK         0.3029 
    127 H127      -47.9514  -26.1479   14.4413 H         1 UNK         0.0897 
    128 H128      -46.0746  -27.2458   13.2565 H         1 UNK         0.0792 
    129 H129      -46.8411  -28.4002   14.3333 H         1 UNK         0.0792 
    130 H130      -47.1562  -28.4778   12.6047 H         1 UNK         0.0792 
    131 H131      -47.7550  -26.2555   11.6221 H         1 UNK         0.3086 
    132 H132      -49.4892  -25.1581   10.1489 H         1 UNK         0.0583 
    133 H133      -51.3084  -23.6675   11.0280 H         1 UNK         0.1020 
    134 H134      -50.1279  -22.4340   11.3792 H         1 UNK         0.1020 
    135 H135      -52.8609  -22.5277    9.1719 H         1 UNK         0.0694 
    136 H136      -52.3594  -22.7834    7.5178 H         1 UNK         0.0694 
    137 H137      -47.8420  -22.8458   10.4132 H         1 UNK         0.2989 
    138 H138      -45.4064  -23.0535   10.4372 H         1 UNK         0.1055 
    139 H139      -44.5675  -25.4036    8.6633 H         1 UNK         0.0806 
    140 H140      -44.0668  -25.0819   10.3194 H         1 UNK         0.0806 
    141 H141      -43.5569  -24.0084    9.0315 H         1 UNK         0.0806 
    142 H142      -45.7623  -23.4650    7.5376 H         1 UNK         0.3061 
    143 H143      -47.9021  -20.8746    7.0014 H         1 UNK         0.0734 
    144 H144      -46.2479  -19.1588    7.7119 H         1 UNK         0.0832 
    145 H145      -44.9461  -20.0519    6.9398 H         1 UNK         0.0832 
    146 H146      -46.2323  -19.3357    5.9665 H         1 UNK         0.0832 
    147 H147      -45.6165  -21.9327    5.4939 H         1 UNK         0.3156 
    148 H148      -47.4384  -23.5507    3.3663 H         1 UNK         0.0589 
    149 H149      -44.6828  -23.7724    4.7075 H         1 UNK         0.0808 
    150 H150      -45.0466  -24.1889    3.0402 H         1 UNK         0.0808 
    151 H151      -45.1896  -22.5265    3.5636 H         1 UNK         0.0808 
    152 H152      -47.6212  -25.7141    3.7852 H         1 UNK         0.3098 
    153 H153      -47.9860  -27.5615    5.1196 H         1 UNK         0.0720 
    154 H154      -46.2333  -29.2742    4.5632 H         1 UNK         0.0791 
    155 H155      -44.9597  -28.1415    5.0115 H         1 UNK         0.0791 
    156 H156      -45.9721  -27.8265    3.6086 H         1 UNK         0.0791 
    157 H157      -46.4700  -27.3646    7.5478 H         1 UNK         0.3028 
@<TRIPOS>BOND
     1    1    2 1    
     2    1   82 1    
     3    1   83 1    
     4    1   84 1    
     5    2    3 2    
     6    2    4 am   BACKBONE|DICT|INTERRES
     7    4    5 1    
     8    4   85 1    
     9    5    6 1    
    10    5   80 1    
    11    5   86 1    
    12    6    7 1    
    13    6   87 1    
    14    6   88 1    
    15    7    8 1    
    16    8    9 1    
    17    8   89 1    
    18    8   90 1    
    19    9   10 ar   
    20    9   14 ar   
    21   10   11 ar   
    22   10   91 1    
    23   11   12 ar   
    24   11   58 1    
    25   12   13 ar   
    26   12   92 1    
    27   13   14 ar   
    28   13   15 1    
    29   14   93 1    
    30   15   16 1    
    31   15   94 1    
    32   15   95 1    
    33   16   17 1    
    34   17   18 1    
    35   17   96 1    
    36   17   97 1    
    37   18   19 1    
    38   18   22 1    
    39   18   98 1    
    40   19   20 am   BACKBONE|DICT|INTERRES
    41   19   21 2    
    42   20   99 1    
    43   20  100 1    
    44   22   23 am   BACKBONE|DICT|INTERRES
    45   22  101 1    
    46   23   24 2    
    47   23   25 1    
    48   25   26 1    
    49   25   27 1    
    50   25  102 1    
    51   26  103 1    
    52   26  104 1    
    53   26  105 1    
    54   27   28 am   BACKBONE|DICT|INTERRES
    55   27  106 1    
    56   28   29 2    
    57   28   30 1    
    58   30   31 1    
    59   30   32 1    
    60   30  107 1    
    61   31  108 1    
    62   31  109 1    
    63   31  110 1    
    64   32   33 am   BACKBONE|DICT|INTERRES
    65   32  111 1    
    66   33   34 2    
    67   33   35 1    
    68   35   36 1    
    69   35   37 1    
    70   35  112 1    
    71   36  113 1    
    72   36  114 1    
    73   36  115 1    
    74   37   38 am   BACKBONE|DICT|INTERRES
    75   37  116 1    
    76   38   39 2    
    77   38   40 1    
    78   40   41 1    
    79   40   42 1    
    80   40  117 1    
    81   41  118 1    
    82   41  119 1    
    83   41  120 1    
    84   42   43 am   BACKBONE|DICT|INTERRES
    85   42  121 1    
    86   43   44 2    
    87   43   45 1    
    88   45   46 1    
    89   45   47 1    
    90   45  122 1    
    91   46  123 1    
    92   46  124 1    
    93   46  125 1    
    94   47   48 am   BACKBONE|DICT|INTERRES
    95   47  126 1    
    96   48   49 2    
    97   48   50 1    
    98   50   51 1    
    99   50   52 1    
   100   50  127 1    
   101   51  128 1    
   102   51  129 1    
   103   51  130 1    
   104   52   53 am   BACKBONE|DICT|INTERRES
   105   52  131 1    
   106   53   54 2    
   107   53   55 1    
   108   55   56 1    
   109   55   59 1    
   110   55  132 1    
   111   56   57 1    
   112   56  133 1    
   113   56  134 1    
   114   57   58 1    
   115   58  135 1    
   116   58  136 1    
   117   59   60 am   BACKBONE|DICT|INTERRES
   118   59  137 1    
   119   60   61 2    
   120   60   62 1    
   121   62   63 1    
   122   62   64 1    
   123   62  138 1    
   124   63  139 1    
   125   63  140 1    
   126   63  141 1    
   127   64   65 am   BACKBONE|DICT|INTERRES
   128   64  142 1    
   129   65   66 2    
   130   65   67 1    
   131   67   68 1    
   132   67   69 1    
   133   67  143 1    
   134   68  144 1    
   135   68  145 1    
   136   68  146 1    
   137   69   70 am   BACKBONE|DICT|INTERRES
   138   69  147 1    
   139   70   71 2    
   140   70   72 1    
   141   72   73 1    
   142   72   74 1    
   143   72  148 1    
   144   73  149 1    
   145   73  150 1    
   146   73  151 1    
   147   74   75 am   BACKBONE|DICT|INTERRES
   148   74  152 1    
   149   75   76 2    
   150   75   77 1    
   151   77   78 1    
   152   77   79 1    
   153   77  153 1    
   154   78  154 1    
   155   78  155 1    
   156   78  156 1    
   157   79   80 am   BACKBONE|DICT|INTERRES
   158   79  157 1    
   159   80   81 2    
@<TRIPOS>SUBSTRUCTURE
     1 UNK         1 GROUP             0       ****    0 ROOT    
