@<TRIPOS>MOLECULE
3R207
157   159    1
SMALL
USER_CHARGES


@<TRIPOS>ATOM
      1 CA        -46.3889  -31.7172    2.8678 C.3       0 UNK        -0.1975 
      2 C         -46.6767  -30.6082    3.8693 C.2       0 UNK         0.4852 
      3 O         -45.7918  -30.2371    4.6417 O.2       0 UNK        -0.5216 
      4 N         -47.9040  -30.0715    3.8570 N.am      1 UNK        -0.4461 
      5 CA        -48.3774  -29.0451    4.7891 C.3       1 UNK         0.0864 
      6 C6        -49.6654  -28.3698    4.2535 C.3       14 UNK        -0.0898 
      7 S7        -50.3021  -27.0152    5.3047 S.3       14 UNK        -0.2598 
      8 C8        -51.9210  -27.7182    5.7602 C.3       14 UNK         0.0286 
      9 C9        -52.7080  -26.8442    6.7280 C.ar      14 UNK        -0.0844 
     10 C10       -52.9646  -25.5011    6.4358 C.ar      14 UNK        -0.0881 
     11 C11       -53.7232  -24.7128    7.3074 C.ar      14 UNK        -0.0643 
     12 C12       -54.2435  -25.2839    8.4747 C.ar      14 UNK        -0.0930 
     13 C13       -54.0075  -26.6308    8.7711 C.ar      14 UNK        -0.0827 
     14 C14       -53.2360  -27.4014    7.8957 C.ar      14 UNK        -0.1249 
     15 C15       -54.6270  -27.2759   10.0039 C.3       14 UNK         0.0141 
     16 S16       -53.3617  -27.9000   11.1544 S.3       14 UNK        -0.2313 
     17 C17       -53.9842  -29.5755   11.5201 C.3       14 UNK        -0.0915 
     18 CA        -53.5707  -30.1317   12.9119 C.3       13 UNK         0.0968 
     19 C         -52.0625  -30.4759   13.0637 C.2       13 UNK         0.5732 
     20 N         -51.4891  -30.3863   14.2585 N.am      13 UNK        -0.7310 
     21 O         -51.4068  -30.8650   12.1005 O.2       13 UNK        -0.5035 
     22 N         -54.0991  -29.3266   14.0243 N.am      13 UNK        -0.4233 
     23 C         -55.2637  -29.5603   14.6416 C.2       13 UNK         0.4989 
     24 O         -56.0451  -30.4498   14.2977 O.2       13 UNK        -0.4996 
     25 CA        -55.6359  -28.6543   15.8348 C.3       12 UNK         0.0216 
     26 CB        -56.6256  -29.3310   16.8076 C.3       12 UNK        -0.1964 
     27 N         -54.4902  -28.1097   16.5742 N.am      12 UNK        -0.4276 
     28 C         -53.5119  -28.7854   17.2006 C.2       12 UNK         0.5020 
     29 O         -53.4319  -30.0144   17.2093 O.2       12 UNK        -0.5489 
     30 CA        -52.4241  -27.9577   17.9166 C.3       11 UNK         0.0294 
     31 CB        -51.0190  -28.5376   17.6698 C.3       11 UNK        -0.2019 
     32 N         -52.4364  -26.5649   17.4683 N.am      11 UNK        -0.4493 
     33 C         -52.8778  -25.5135   18.1727 C.2       11 UNK         0.4932 
     34 O         -53.2405  -25.5787   19.3470 O.2       11 UNK        -0.5029 
     35 CA        -52.9615  -24.1609   17.4348 C.3       10 UNK         0.0280 
     36 CB        -51.7354  -23.2952   17.7639 C.3       10 UNK        -0.1976 
     37 N         -53.0812  -24.2990   15.9787 N.am      10 UNK        -0.4242 
     38 C         -54.1258  -24.8642   15.3503 C.2       10 UNK         0.5072 
     39 O         -55.1468  -25.2321   15.9309 O.2       10 UNK        -0.5224 
     40 CA        -53.9812  -25.1606   13.8461 C.3       9 UNK         0.0343 
     41 CB        -54.6884  -24.0864   13.0079 C.3       9 UNK        -0.2003 
     42 N         -52.5850  -25.2951   13.4188 N.am      9 UNK        -0.4272 
     43 C         -51.7521  -26.2556   13.8555 C.2       9 UNK         0.4988 
     44 O         -52.1181  -27.1637   14.6034 O.2       9 UNK        -0.5108 
     45 CA        -50.2684  -26.1884   13.4467 C.3       8 UNK         0.0248 
     46 CB        -49.9351  -27.3036   12.4484 C.3       8 UNK        -0.2001 
     47 N         -49.8582  -24.9027   12.8806 N.am      8 UNK        -0.4140 
     48 C         -49.8490  -23.7345   13.5413 C.2       8 UNK         0.5028 
     49 O         -50.1525  -23.6220   14.7300 O.2       8 UNK        -0.5428 
     50 CA        -49.5246  -22.4682   12.7245 C.3       7 UNK         0.0264 
     51 CB        -48.0315  -22.1336   12.8313 C.3       7 UNK        -0.1988 
     52 N         -49.8995  -22.5808   11.3100 N.am      7 UNK        -0.4454 
     53 C         -51.1518  -22.7998   10.8766 C.2       7 UNK         0.5027 
     54 O         -52.1252  -22.8133   11.6291 O.2       7 UNK        -0.5083 
     55 CA        -51.3745  -23.1071    9.3813 C.3       6 UNK         0.0844 
     56 C56       -52.1703  -21.9655    8.7020 C.3       14 UNK        -0.0967 
     57 S57       -52.4849  -22.2486    6.9260 S.3       14 UNK        -0.2604 
     58 C58       -54.0039  -23.2554    6.9633 C.3       14 UNK         0.0134 
     59 N         -50.1592  -23.4676    8.6451 N.am      6 UNK        -0.4116 
     60 C         -49.3947  -24.5401    8.8865 C.2       5 UNK         0.5034 
     61 O         -49.5720  -25.3040    9.8360 O.2       5 UNK        -0.5045 
     62 CA        -48.2182  -24.8011    7.9293 C.3       5 UNK         0.0224 
     63 CB        -48.1034  -23.7989    6.7580 C.3       5 UNK        -0.1978 
     64 N         -46.9485  -24.8954    8.6550 N.am      5 UNK        -0.4737 
     65 C         -46.3926  -23.9769    9.4608 C.2       4 UNK         0.5027 
     66 O         -46.8800  -22.8652    9.6764 O.2       4 UNK        -0.5211 
     67 CA        -45.0601  -24.3897   10.1245 C.3       4 UNK         0.0297 
     68 CB        -44.6216  -23.4697   11.2840 C.3       4 UNK        -0.1993 
     69 N         -45.0448  -25.8027   10.5268 N.am      4 UNK        -0.4486 
     70 C         -45.8720  -26.4051   11.3945 C.2       3 UNK         0.4961 
     71 O         -46.6948  -25.8153   12.0949 O.2       3 UNK        -0.5105 
     72 CA        -45.7815  -27.9437   11.4512 C.3       3 UNK         0.0299 
     73 CB        -45.9020  -28.4608   12.8959 C.3       3 UNK        -0.1972 
     74 N         -46.7973  -28.6036   10.6193 N.am      3 UNK        -0.4305 
     75 C         -46.9635  -28.4373    9.2993 C.2       2 UNK         0.5006 
     76 O         -46.2600  -27.6931    8.6069 O.2       2 UNK        -0.5106 
     77 CA        -48.0881  -29.2425    8.6275 C.3       2 UNK         0.0296 
     78 CB        -49.4787  -28.9136    9.2066 C.3       2 UNK        -0.2002 
     79 N         -48.0552  -28.9270    7.2041 N.am      2 UNK        -0.4032 
     80 C         -48.5620  -29.6460    6.2000 C.2       1 UNK         0.5000 
     81 O         -49.1631  -30.7147    6.3423 O.2       1 UNK        -0.5238 
     82 H82       -47.2533  -31.9356    2.2410 H         1 UNK         0.0889 
     83 H83       -46.1100  -32.6315    3.3910 H         1 UNK         0.0889 
     84 H84       -45.5627  -31.4306    2.2177 H         1 UNK         0.0889 
     85 H85       -48.5970  -30.4388    3.2207 H         1 UNK         0.3028 
     86 H86       -47.6035  -28.2755    4.8427 H         1 UNK         0.0864 
     87 H87       -49.4692  -27.9457    3.2674 H         1 UNK         0.0720 
     88 H88       -50.4458  -29.1179    4.1013 H         1 UNK         0.0720 
     89 H89       -52.5161  -27.8630    4.8574 H         1 UNK         0.0814 
     90 H90       -51.7597  -28.7089    6.1894 H         1 UNK         0.0814 
     91 H91       -52.5726  -25.0658    5.5266 H         1 UNK         0.1469 
     92 H92       -54.8432  -24.6832    9.1447 H         1 UNK         0.1381 
     93 H93       -53.0618  -28.4445    8.1227 H         1 UNK         0.1206 
     94 H94       -55.2658  -26.5712   10.5382 H         1 UNK         0.0813 
     95 H95       -55.2750  -28.0885    9.6737 H         1 UNK         0.0813 
     96 H96       -55.0733  -29.5648   11.4605 H         1 UNK         0.0638 
     97 H97       -53.6522  -30.2448   10.7248 H         1 UNK         0.0638 
     98 H98       -54.0271  -31.1208   12.9775 H         1 UNK         0.0568 
     99 H99       -52.0286  -30.1243   15.0690 H         1 UNK         0.3450 
    100 H100      -50.5166  -30.6282   14.3542 H         1 UNK         0.3450 
    101 H101      -53.4913  -28.5777   14.3439 H         1 UNK         0.2987 
    102 H102      -56.1453  -27.7939   15.3989 H         1 UNK         0.0766 
    103 H103      -56.8993  -28.6622   17.6236 H         1 UNK         0.0798 
    104 H104      -57.5494  -29.6113   16.2999 H         1 UNK         0.0798 
    105 H105      -56.2052  -30.2380   17.2435 H         1 UNK         0.0798 
    106 H106      -54.4635  -27.0970   16.6153 H         1 UNK         0.3198 
    107 H107      -52.6348  -28.0154   18.9864 H         1 UNK         0.0843 
    108 H108      -50.9457  -29.5639   18.0318 H         1 UNK         0.0831 
    109 H109      -50.2561  -27.9588   18.1904 H         1 UNK         0.0831 
    110 H110      -50.7660  -28.5455   16.6089 H         1 UNK         0.0831 
    111 H111      -52.1863  -26.4325   16.4936 H         1 UNK         0.3133 
    112 H112      -53.8529  -23.6433   17.7951 H         1 UNK         0.0566 
    113 H113      -50.8090  -23.7648   17.4301 H         1 UNK         0.0814 
    114 H114      -51.6493  -23.1324   18.8391 H         1 UNK         0.0814 
    115 H115      -51.8020  -22.3146   17.2923 H         1 UNK         0.0814 
    116 H116      -52.2677  -24.0379   15.4322 H         1 UNK         0.3091 
    117 H117      -54.4737  -26.1159   13.6524 H         1 UNK         0.0702 
    118 H118      -54.6053  -24.2963   11.9412 H         1 UNK         0.0785 
    119 H119      -54.2724  -23.0948   13.1896 H         1 UNK         0.0785 
    120 H120      -55.7513  -24.0423   13.2489 H         1 UNK         0.0785 
    121 H121      -52.2295  -24.5714   12.8041 H         1 UNK         0.2998 
    122 H122      -49.6774  -26.3526   14.3497 H         1 UNK         0.0697 
    123 H123      -50.5232  -27.2115   11.5354 H         1 UNK         0.0825 
    124 H124      -50.1372  -28.2849   12.8747 H         1 UNK         0.0825 
    125 H125      -48.8844  -27.2841   12.1662 H         1 UNK         0.0825 
    126 H126      -49.6014  -24.9114   11.8980 H         1 UNK         0.3029 
    127 H127      -50.0962  -21.6435   13.1554 H         1 UNK         0.0897 
    128 H128      -47.7840  -21.2193   12.2917 H         1 UNK         0.0792 
    129 H129      -47.7345  -21.9916   13.8713 H         1 UNK         0.0792 
    130 H130      -47.4233  -22.9406   12.4245 H         1 UNK         0.0792 
    131 H131      -49.1415  -22.6052   10.6390 H         1 UNK         0.3086 
    132 H132      -52.0005  -23.9992    9.3699 H         1 UNK         0.0583 
    133 H133      -53.1255  -21.8102    9.2080 H         1 UNK         0.1020 
    134 H134      -51.6283  -21.0222    8.7941 H         1 UNK         0.1020 
    135 H135      -54.7206  -22.8150    7.6582 H         1 UNK         0.0694 
    136 H136      -54.4716  -23.2141    5.9786 H         1 UNK         0.0694 
    137 H137      -49.9396  -22.8884    7.8484 H         1 UNK         0.2989 
    138 H138      -48.4036  -25.7876    7.5023 H         1 UNK         0.1055 
    139 H139      -49.0112  -23.7919    6.1525 H         1 UNK         0.0806 
    140 H140      -47.2851  -24.0735    6.0922 H         1 UNK         0.0806 
    141 H141      -47.9176  -22.7804    7.1010 H         1 UNK         0.0806 
    142 H142      -46.5030  -25.8092    8.6162 H         1 UNK         0.3061 
    143 H143      -44.3088  -24.2911    9.3395 H         1 UNK         0.0734 
    144 H144      -44.6232  -22.4221   10.9805 H         1 UNK         0.0832 
    145 H145      -45.2739  -23.5605   12.1505 H         1 UNK         0.0832 
    146 H146      -43.6092  -23.7077   11.6096 H         1 UNK         0.0832 
    147 H147      -44.4436  -26.4001    9.9746 H         1 UNK         0.3156 
    148 H148      -44.8016  -28.2439   11.0743 H         1 UNK         0.0589 
    149 H149      -46.8829  -28.2494   13.3236 H         1 UNK         0.0808 
    150 H150      -45.7372  -29.5371   12.9490 H         1 UNK         0.0808 
    151 H151      -45.1595  -27.9887   13.5407 H         1 UNK         0.0808 
    152 H152      -47.4289  -29.2245   11.1035 H         1 UNK         0.3098 
    153 H153      -47.8733  -30.3045    8.7613 H         1 UNK         0.0720 
    154 H154      -50.2672  -29.4560    8.6849 H         1 UNK         0.0791 
    155 H155      -49.5496  -29.1927   10.2579 H         1 UNK         0.0791 
    156 H156      -49.7069  -27.8505    9.1289 H         1 UNK         0.0791 
    157 H157      -47.4966  -28.1078    6.9972 H         1 UNK         0.3028 
@<TRIPOS>BOND
     1    1    2 1    
     2    1   82 1    
     3    1   83 1    
     4    1   84 1    
     5    2    3 2    
     6    2    4 am   BACKBONE|DICT|INTERRES
     7    4    5 1    
     8    4   85 1    
     9    5    6 1    
    10    5   80 1    
    11    5   86 1    
    12    6    7 1    
    13    6   87 1    
    14    6   88 1    
    15    7    8 1    
    16    8    9 1    
    17    8   89 1    
    18    8   90 1    
    19    9   10 ar   
    20    9   14 ar   
    21   10   11 ar   
    22   10   91 1    
    23   11   12 ar   
    24   11   58 1    
    25   12   13 ar   
    26   12   92 1    
    27   13   14 ar   
    28   13   15 1    
    29   14   93 1    
    30   15   16 1    
    31   15   94 1    
    32   15   95 1    
    33   16   17 1    
    34   17   18 1    
    35   17   96 1    
    36   17   97 1    
    37   18   19 1    
    38   18   22 1    
    39   18   98 1    
    40   19   20 am   BACKBONE|DICT|INTERRES
    41   19   21 2    
    42   20   99 1    
    43   20  100 1    
    44   22   23 am   BACKBONE|DICT|INTERRES
    45   22  101 1    
    46   23   24 2    
    47   23   25 1    
    48   25   26 1    
    49   25   27 1    
    50   25  102 1    
    51   26  103 1    
    52   26  104 1    
    53   26  105 1    
    54   27   28 am   BACKBONE|DICT|INTERRES
    55   27  106 1    
    56   28   29 2    
    57   28   30 1    
    58   30   31 1    
    59   30   32 1    
    60   30  107 1    
    61   31  108 1    
    62   31  109 1    
    63   31  110 1    
    64   32   33 am   BACKBONE|DICT|INTERRES
    65   32  111 1    
    66   33   34 2    
    67   33   35 1    
    68   35   36 1    
    69   35   37 1    
    70   35  112 1    
    71   36  113 1    
    72   36  114 1    
    73   36  115 1    
    74   37   38 am   BACKBONE|DICT|INTERRES
    75   37  116 1    
    76   38   39 2    
    77   38   40 1    
    78   40   41 1    
    79   40   42 1    
    80   40  117 1    
    81   41  118 1    
    82   41  119 1    
    83   41  120 1    
    84   42   43 am   BACKBONE|DICT|INTERRES
    85   42  121 1    
    86   43   44 2    
    87   43   45 1    
    88   45   46 1    
    89   45   47 1    
    90   45  122 1    
    91   46  123 1    
    92   46  124 1    
    93   46  125 1    
    94   47   48 am   BACKBONE|DICT|INTERRES
    95   47  126 1    
    96   48   49 2    
    97   48   50 1    
    98   50   51 1    
    99   50   52 1    
   100   50  127 1    
   101   51  128 1    
   102   51  129 1    
   103   51  130 1    
   104   52   53 am   BACKBONE|DICT|INTERRES
   105   52  131 1    
   106   53   54 2    
   107   53   55 1    
   108   55   56 1    
   109   55   59 1    
   110   55  132 1    
   111   56   57 1    
   112   56  133 1    
   113   56  134 1    
   114   57   58 1    
   115   58  135 1    
   116   58  136 1    
   117   59   60 am   BACKBONE|DICT|INTERRES
   118   59  137 1    
   119   60   61 2    
   120   60   62 1    
   121   62   63 1    
   122   62   64 1    
   123   62  138 1    
   124   63  139 1    
   125   63  140 1    
   126   63  141 1    
   127   64   65 am   BACKBONE|DICT|INTERRES
   128   64  142 1    
   129   65   66 2    
   130   65   67 1    
   131   67   68 1    
   132   67   69 1    
   133   67  143 1    
   134   68  144 1    
   135   68  145 1    
   136   68  146 1    
   137   69   70 am   BACKBONE|DICT|INTERRES
   138   69  147 1    
   139   70   71 2    
   140   70   72 1    
   141   72   73 1    
   142   72   74 1    
   143   72  148 1    
   144   73  149 1    
   145   73  150 1    
   146   73  151 1    
   147   74   75 am   BACKBONE|DICT|INTERRES
   148   74  152 1    
   149   75   76 2    
   150   75   77 1    
   151   77   78 1    
   152   77   79 1    
   153   77  153 1    
   154   78  154 1    
   155   78  155 1    
   156   78  156 1    
   157   79   80 am   BACKBONE|DICT|INTERRES
   158   79  157 1    
   159   80   81 2    
@<TRIPOS>SUBSTRUCTURE
     1 UNK         1 GROUP             0       ****    0 ROOT    
