@<TRIPOS>MOLECULE
3R207
157   159    1
SMALL
USER_CHARGES


@<TRIPOS>ATOM
      1 CA        -44.7859  -28.9835    6.3696 C.3       0 UNK        -0.1975 
      2 C         -46.0541  -28.4553    5.7159 C.2       0 UNK         0.4852 
      3 O         -45.9787  -27.5733    4.8595 O.2       0 UNK        -0.5216 
      4 N         -47.2156  -28.9943    6.1094 N.am      1 UNK        -0.4461 
      5 CA        -48.5469  -28.5731    5.6614 C.3       1 UNK         0.0864 
      6 C6        -49.6852  -29.5565    6.0884 C.3       14 UNK        -0.0898 
      7 S7        -49.3486  -30.6948    7.4868 S.3       14 UNK        -0.2598 
      8 C8        -49.3599  -29.6125    8.9497 C.3       14 UNK         0.0286 
      9 C9        -50.7515  -29.1587    9.3606 C.ar      14 UNK        -0.0844 
     10 C10       -51.2744  -27.9722    8.8469 C.ar      14 UNK        -0.0881 
     11 C11       -52.4951  -27.4702    9.2967 C.ar      14 UNK        -0.0643 
     12 C12       -53.2174  -28.1862   10.2554 C.ar      14 UNK        -0.0930 
     13 C13       -52.7193  -29.3929   10.7597 C.ar      14 UNK        -0.0827 
     14 C14       -51.4855  -29.8752   10.3100 C.ar      14 UNK        -0.1249 
     15 C15       -53.5001  -30.1515   11.8186 C.3       14 UNK         0.0141 
     16 S16       -54.8083  -31.1700   11.0745 S.3       14 UNK        -0.2313 
     17 C17       -55.7907  -31.5856   12.5541 C.3       14 UNK        -0.0915 
     18 CA        -57.1744  -30.8852   12.5641 C.3       13 UNK         0.0968 
     19 C         -58.0201  -31.3662   13.7749 C.2       13 UNK         0.5732 
     20 N         -58.7641  -32.4527   13.6192 N.am      13 UNK        -0.7310 
     21 O         -57.9757  -30.7901   14.8609 O.2       13 UNK        -0.5035 
     22 N         -57.0453  -29.4219   12.5224 N.am      13 UNK        -0.4233 
     23 C         -58.0464  -28.5662   12.2920 C.2       13 UNK         0.4989 
     24 O         -59.1933  -28.9147   12.0039 O.2       13 UNK        -0.4996 
     25 CA        -57.7028  -27.0696   12.4286 C.3       12 UNK         0.0216 
     26 CB        -58.8734  -26.1509   12.0289 C.3       12 UNK        -0.1964 
     27 N         -57.2866  -26.7430   13.7956 N.am      12 UNK        -0.4276 
     28 C         -56.0711  -26.9792   14.3026 C.2       12 UNK         0.5020 
     29 O         -55.1542  -27.4964   13.6600 O.2       12 UNK        -0.5489 
     30 CA        -55.8663  -26.6439   15.7870 C.3       11 UNK         0.0294 
     31 CB        -56.0903  -27.8968   16.6489 C.3       11 UNK        -0.2019 
     32 N         -54.5161  -26.1378   16.0248 N.am      11 UNK        -0.4493 
     33 C         -54.0817  -24.9182   15.6910 C.2       11 UNK         0.4932 
     34 O         -54.8107  -24.0403   15.2271 O.2       11 UNK        -0.5029 
     35 CA        -52.5892  -24.6124   15.9124 C.3       10 UNK         0.0280 
     36 CB        -52.2982  -24.2685   17.3857 C.3       10 UNK        -0.1976 
     37 N         -51.6680  -25.6384   15.4066 N.am      10 UNK        -0.4242 
     38 C         -51.4789  -26.8984   15.8253 C.2       10 UNK         0.5072 
     39 O         -52.1228  -27.4324   16.7304 O.2       10 UNK        -0.5224 
     40 CA        -50.3756  -27.7011   15.1145 C.3       9 UNK         0.0343 
     41 CB        -50.9010  -28.2872   13.7937 C.3       9 UNK        -0.2003 
     42 N         -49.1637  -26.9125   14.8669 N.am      9 UNK        -0.4272 
     43 C         -48.3569  -26.4381   15.8300 C.2       9 UNK         0.4988 
     44 O         -48.5128  -26.6692   17.0297 O.2       9 UNK        -0.5108 
     45 CA        -47.1768  -25.5525   15.3906 C.3       8 UNK         0.0248 
     46 CB        -46.0045  -26.4125   14.8918 C.3       8 UNK        -0.2001 
     47 N         -47.5484  -24.5773   14.3639 N.am      8 UNK        -0.4140 
     48 C         -48.3880  -23.5487   14.5537 C.2       8 UNK         0.5028 
     49 O         -48.8733  -23.2483   15.6446 O.2       8 UNK        -0.5428 
     50 CA        -48.7873  -22.7391   13.3060 C.3       7 UNK         0.0264 
     51 CB        -47.7583  -21.6377   13.0044 C.3       7 UNK        -0.1988 
     52 N         -48.9824  -23.5824   12.1218 N.am      7 UNK        -0.4454 
     53 C         -49.9328  -24.5254   12.0233 C.2       7 UNK         0.5027 
     54 O         -50.7619  -24.7475   12.9051 O.2       7 UNK        -0.5083 
     55 CA        -49.9233  -25.4011   10.7566 C.3       6 UNK         0.0844 
     56 C56       -50.6695  -24.7204    9.5808 C.3       14 UNK        -0.0967 
     57 S57       -52.4867  -24.7384    9.7932 S.3       14 UNK        -0.2604 
     58 C58       -53.0090  -26.1439    8.7570 C.3       14 UNK         0.0134 
     59 N         -48.5554  -25.7922   10.4015 N.am      6 UNK        -0.4116 
     60 C         -47.8098  -26.6560   11.1085 C.2       5 UNK         0.5034 
     61 O         -48.2276  -27.2718   12.0878 O.2       5 UNK        -0.5045 
     62 CA        -46.3304  -26.8195   10.7072 C.3       5 UNK         0.0224 
     63 CB        -46.1427  -27.9565    9.6931 C.3       5 UNK        -0.1978 
     64 N         -45.7375  -25.5912   10.1755 N.am      5 UNK        -0.4737 
     65 C         -45.5530  -24.4738   10.8909 C.2       4 UNK         0.5027 
     66 O         -45.7954  -24.3944   12.0938 O.2       4 UNK        -0.5211 
     67 CA        -45.0718  -23.2222   10.1334 C.3       4 UNK         0.0297 
     68 CB        -43.5468  -23.0801   10.2537 C.3       4 UNK        -0.1993 
     69 N         -45.4566  -23.1869    8.7156 N.am      4 UNK        -0.4486 
     70 C         -46.7136  -23.2373    8.2518 C.2       3 UNK         0.4961 
     71 O         -47.7001  -23.3375    8.9865 O.2       3 UNK        -0.5105 
     72 CA        -46.9095  -23.2097    6.7269 C.3       3 UNK         0.0299 
     73 CB        -45.6619  -23.6242    5.9177 C.3       3 UNK        -0.1972 
     74 N         -48.0192  -24.0979    6.4047 N.am      3 UNK        -0.4305 
     75 C         -48.9102  -23.9563    5.4231 C.2       2 UNK         0.5006 
     76 O         -48.8702  -23.0521    4.5864 O.2       2 UNK        -0.5106 
     77 CA        -50.0373  -25.0120    5.3823 C.3       2 UNK         0.0296 
     78 CB        -51.0937  -24.7071    4.3036 C.3       2 UNK        -0.2002 
     79 N         -49.5535  -26.3854    5.1931 N.am      2 UNK        -0.4032 
     80 C         -48.8613  -27.1194    6.0772 C.2       1 UNK         0.5000 
     81 O         -48.5148  -26.7050    7.1881 O.2       1 UNK        -0.5238 
     82 H82       -44.1267  -29.4135    5.6169 H         1 UNK         0.0889 
     83 H83       -44.9993  -29.7514    7.1123 H         1 UNK         0.0889 
     84 H84       -44.2544  -28.1721    6.8648 H         1 UNK         0.0889 
     85 H85       -47.2213  -29.7218    6.8104 H         1 UNK         0.3028 
     86 H86       -48.5083  -28.5793    4.5695 H         1 UNK         0.0864 
     87 H87       -50.6310  -29.0437    6.2724 H         1 UNK         0.0720 
     88 H88       -49.8987  -30.2061    5.2381 H         1 UNK         0.0720 
     89 H89       -48.7296  -28.7451    8.7663 H         1 UNK         0.0814 
     90 H90       -48.8940  -30.1467    9.7791 H         1 UNK         0.0814 
     91 H91       -50.7116  -27.4117    8.1210 H         1 UNK         0.1469 
     92 H92       -54.1604  -27.8004   10.6186 H         1 UNK         0.1381 
     93 H93       -51.0856  -30.7942   10.7161 H         1 UNK         0.1206 
     94 H94       -52.8355  -30.7901   12.4025 H         1 UNK         0.0813 
     95 H95       -53.9366  -29.4425   12.5207 H         1 UNK         0.0813 
     96 H96       -55.9157  -32.6700   12.5637 H         1 UNK         0.0638 
     97 H97       -55.2274  -31.3395   13.4564 H         1 UNK         0.0638 
     98 H98       -57.7042  -31.1816   11.6564 H         1 UNK         0.0568 
     99 H99       -58.7985  -32.9404   12.7375 H         1 UNK         0.3450 
    100 H100      -59.3078  -32.7885   14.3987 H         1 UNK         0.3450 
    101 H101      -56.1546  -29.0334   12.8126 H         1 UNK         0.2987 
    102 H102      -56.8744  -26.8638   11.7466 H         1 UNK         0.0766 
    103 H103      -58.5879  -25.1000   12.0803 H         1 UNK         0.0798 
    104 H104      -59.7416  -26.2951   12.6734 H         1 UNK         0.0798 
    105 H105      -59.1915  -26.3477   11.0041 H         1 UNK         0.0798 
    106 H106      -57.9996  -26.3619   14.4016 H         1 UNK         0.3198 
    107 H107      -56.5839  -25.8766   16.0858 H         1 UNK         0.0843 
    108 H108      -55.3845  -28.6898   16.3968 H         1 UNK         0.0831 
    109 H109      -57.0940  -28.2992   16.5036 H         1 UNK         0.0831 
    110 H110      -55.9801  -27.6744   17.7104 H         1 UNK         0.0831 
    111 H111      -53.8199  -26.8000   16.3603 H         1 UNK         0.3133 
    112 H112      -52.3648  -23.7213   15.3238 H         1 UNK         0.0566 
    113 H113      -51.2578  -23.9719   17.5216 H         1 UNK         0.0814 
    114 H114      -52.9197  -23.4372   17.7207 H         1 UNK         0.0814 
    115 H115      -52.4966  -25.1097   18.0504 H         1 UNK         0.0814 
    116 H116      -51.1488  -25.3486   14.5782 H         1 UNK         0.3091 
    117 H117      -50.1014  -28.5333   15.7661 H         1 UNK         0.0702 
    118 H118      -51.7891  -28.8958   13.9666 H         1 UNK         0.0785 
    119 H119      -50.1577  -28.9256   13.3159 H         1 UNK         0.0785 
    120 H120      -51.1766  -27.5079   13.0823 H         1 UNK         0.0785 
    121 H121      -48.9222  -26.7447   13.8954 H         1 UNK         0.2998 
    122 H122      -46.8365  -24.9948   16.2656 H         1 UNK         0.0697 
    123 H123      -46.2817  -27.0102   14.0237 H         1 UNK         0.0825 
    124 H124      -45.6704  -27.1021   15.6680 H         1 UNK         0.0825 
    125 H125      -45.1491  -25.7960   14.6144 H         1 UNK         0.0825 
    126 H126      -47.1126  -24.6806   13.4509 H         1 UNK         0.3029 
    127 H127      -49.7428  -22.2564   13.5236 H         1 UNK         0.0897 
    128 H128      -48.0540  -21.0416   12.1410 H         1 UNK         0.0792 
    129 H129      -46.7676  -22.0466   12.8080 H         1 UNK         0.0792 
    130 H130      -47.6633  -20.9564   13.8509 H         1 UNK         0.0792 
    131 H131      -48.3364  -23.4609   11.3528 H         1 UNK         0.3086 
    132 H132      -50.4553  -26.3220   11.0034 H         1 UNK         0.0583 
    133 H133      -50.3423  -23.6867    9.4525 H         1 UNK         0.1020 
    134 H134      -50.4207  -25.2151    8.6442 H         1 UNK         0.1020 
    135 H135      -54.0990  -26.1630    8.7150 H         1 UNK         0.0694 
    136 H136      -52.6683  -25.9886    7.7320 H         1 UNK         0.0694 
    137 H137      -48.1217  -25.2735    9.6480 H         1 UNK         0.2989 
    138 H138      -45.7822  -27.0867   11.6133 H         1 UNK         0.1055 
    139 H139      -46.5840  -28.8843   10.0589 H         1 UNK         0.0806 
    140 H140      -45.0858  -28.1538    9.5137 H         1 UNK         0.0806 
    141 H141      -46.6052  -27.7206    8.7355 H         1 UNK         0.0806 
    142 H142      -45.5093  -25.5747    9.1924 H         1 UNK         0.3061 
    143 H143      -45.5337  -22.3583   10.6155 H         1 UNK         0.0734 
    144 H144      -43.1977  -22.1452    9.8149 H         1 UNK         0.0832 
    145 H145      -43.2373  -23.0787   11.3000 H         1 UNK         0.0832 
    146 H146      -43.0237  -23.9008    9.7611 H         1 UNK         0.0832 
    147 H147      -44.7046  -23.1126    8.0454 H         1 UNK         0.3156 
    148 H148      -47.1804  -22.1857    6.4624 H         1 UNK         0.0589 
    149 H149      -45.3163  -24.6231    6.1887 H         1 UNK         0.0808 
    150 H150      -45.8757  -23.6334    4.8486 H         1 UNK         0.0808 
    151 H151      -44.8361  -22.9272    6.0642 H         1 UNK         0.0808 
    152 H152      -48.1309  -24.9056    7.0145 H         1 UNK         0.3098 
    153 H153      -50.5441  -24.9666    6.3470 H         1 UNK         0.0720 
    154 H154      -51.9246  -25.4114    4.3502 H         1 UNK         0.0791 
    155 H155      -50.6703  -24.7512    3.2992 H         1 UNK         0.0791 
    156 H156      -51.5128  -23.7088    4.4375 H         1 UNK         0.0791 
    157 H157      -49.7709  -26.8006    4.2985 H         1 UNK         0.3028 
@<TRIPOS>BOND
     1    1    2 1    
     2    1   82 1    
     3    1   83 1    
     4    1   84 1    
     5    2    3 2    
     6    2    4 am   BACKBONE|DICT|INTERRES
     7    4    5 1    
     8    4   85 1    
     9    5    6 1    
    10    5   80 1    
    11    5   86 1    
    12    6    7 1    
    13    6   87 1    
    14    6   88 1    
    15    7    8 1    
    16    8    9 1    
    17    8   89 1    
    18    8   90 1    
    19    9   10 ar   
    20    9   14 ar   
    21   10   11 ar   
    22   10   91 1    
    23   11   12 ar   
    24   11   58 1    
    25   12   13 ar   
    26   12   92 1    
    27   13   14 ar   
    28   13   15 1    
    29   14   93 1    
    30   15   16 1    
    31   15   94 1    
    32   15   95 1    
    33   16   17 1    
    34   17   18 1    
    35   17   96 1    
    36   17   97 1    
    37   18   19 1    
    38   18   22 1    
    39   18   98 1    
    40   19   20 am   BACKBONE|DICT|INTERRES
    41   19   21 2    
    42   20   99 1    
    43   20  100 1    
    44   22   23 am   BACKBONE|DICT|INTERRES
    45   22  101 1    
    46   23   24 2    
    47   23   25 1    
    48   25   26 1    
    49   25   27 1    
    50   25  102 1    
    51   26  103 1    
    52   26  104 1    
    53   26  105 1    
    54   27   28 am   BACKBONE|DICT|INTERRES
    55   27  106 1    
    56   28   29 2    
    57   28   30 1    
    58   30   31 1    
    59   30   32 1    
    60   30  107 1    
    61   31  108 1    
    62   31  109 1    
    63   31  110 1    
    64   32   33 am   BACKBONE|DICT|INTERRES
    65   32  111 1    
    66   33   34 2    
    67   33   35 1    
    68   35   36 1    
    69   35   37 1    
    70   35  112 1    
    71   36  113 1    
    72   36  114 1    
    73   36  115 1    
    74   37   38 am   BACKBONE|DICT|INTERRES
    75   37  116 1    
    76   38   39 2    
    77   38   40 1    
    78   40   41 1    
    79   40   42 1    
    80   40  117 1    
    81   41  118 1    
    82   41  119 1    
    83   41  120 1    
    84   42   43 am   BACKBONE|DICT|INTERRES
    85   42  121 1    
    86   43   44 2    
    87   43   45 1    
    88   45   46 1    
    89   45   47 1    
    90   45  122 1    
    91   46  123 1    
    92   46  124 1    
    93   46  125 1    
    94   47   48 am   BACKBONE|DICT|INTERRES
    95   47  126 1    
    96   48   49 2    
    97   48   50 1    
    98   50   51 1    
    99   50   52 1    
   100   50  127 1    
   101   51  128 1    
   102   51  129 1    
   103   51  130 1    
   104   52   53 am   BACKBONE|DICT|INTERRES
   105   52  131 1    
   106   53   54 2    
   107   53   55 1    
   108   55   56 1    
   109   55   59 1    
   110   55  132 1    
   111   56   57 1    
   112   56  133 1    
   113   56  134 1    
   114   57   58 1    
   115   58  135 1    
   116   58  136 1    
   117   59   60 am   BACKBONE|DICT|INTERRES
   118   59  137 1    
   119   60   61 2    
   120   60   62 1    
   121   62   63 1    
   122   62   64 1    
   123   62  138 1    
   124   63  139 1    
   125   63  140 1    
   126   63  141 1    
   127   64   65 am   BACKBONE|DICT|INTERRES
   128   64  142 1    
   129   65   66 2    
   130   65   67 1    
   131   67   68 1    
   132   67   69 1    
   133   67  143 1    
   134   68  144 1    
   135   68  145 1    
   136   68  146 1    
   137   69   70 am   BACKBONE|DICT|INTERRES
   138   69  147 1    
   139   70   71 2    
   140   70   72 1    
   141   72   73 1    
   142   72   74 1    
   143   72  148 1    
   144   73  149 1    
   145   73  150 1    
   146   73  151 1    
   147   74   75 am   BACKBONE|DICT|INTERRES
   148   74  152 1    
   149   75   76 2    
   150   75   77 1    
   151   77   78 1    
   152   77   79 1    
   153   77  153 1    
   154   78  154 1    
   155   78  155 1    
   156   78  156 1    
   157   79   80 am   BACKBONE|DICT|INTERRES
   158   79  157 1    
   159   80   81 2    
@<TRIPOS>SUBSTRUCTURE
     1 UNK         1 GROUP             0       ****    0 ROOT    
