@<TRIPOS>MOLECULE
3R207
157   159    1
SMALL
USER_CHARGES


@<TRIPOS>ATOM
      1 CA        -48.9504  -28.4432   10.0287 C.3       0 UNK        -0.1975 
      2 C         -48.8053  -28.9539    8.6046 C.2       0 UNK         0.4852 
      3 O         -48.6073  -30.1508    8.3956 O.2       0 UNK        -0.5216 
      4 N         -48.8696  -28.0445    7.6271 N.am      1 UNK        -0.4461 
      5 CA        -48.7168  -28.3114    6.1929 C.3       1 UNK         0.0864 
      6 C6        -49.7355  -27.4901    5.3599 C.3       14 UNK        -0.0898 
      7 S7        -51.4290  -28.1420    5.5224 S.3       14 UNK        -0.2598 
      8 C8        -52.4291  -26.6236    5.7081 C.3       14 UNK         0.0286 
      9 C9        -52.8203  -26.2801    7.1458 C.ar      14 UNK        -0.0844 
     10 C10       -53.0434  -24.9427    7.4911 C.ar      14 UNK        -0.0881 
     11 C11       -53.4852  -24.5971    8.7728 C.ar      14 UNK        -0.0643 
     12 C12       -53.6979  -25.6006    9.7219 C.ar      14 UNK        -0.0930 
     13 C13       -53.4872  -26.9406    9.3900 C.ar      14 UNK        -0.0827 
     14 C14       -53.0488  -27.2739    8.1059 C.ar      14 UNK        -0.1249 
     15 C15       -53.7807  -28.0352   10.4003 C.3       14 UNK         0.0141 
     16 S16       -52.3062  -28.4627   11.3700 S.3       14 UNK        -0.2313 
     17 C17       -52.9743  -29.8231   12.3884 C.3       14 UNK        -0.0915 
     18 CA        -53.1329  -29.4805   13.9001 C.3       13 UNK         0.0968 
     19 C         -51.8246  -29.5168   14.7368 C.2       13 UNK         0.5732 
     20 N         -50.9009  -30.4219   14.4471 N.am      13 UNK        -0.7310 
     21 O         -51.6530  -28.7585   15.6906 O.2       13 UNK        -0.5035 
     22 N         -53.8750  -28.2371   14.1338 N.am      13 UNK        -0.4233 
     23 C         -55.1889  -28.0741   13.9674 C.2       13 UNK         0.4989 
     24 O         -55.9462  -28.9586   13.5639 O.2       13 UNK        -0.4996 
     25 CA        -55.7424  -26.6916   14.3486 C.3       12 UNK         0.0216 
     26 CB        -56.8679  -26.2116   13.4077 C.3       12 UNK        -0.1964 
     27 N         -56.1474  -26.6890   15.7588 N.am      12 UNK        -0.4276 
     28 C         -57.1624  -27.3418   16.3454 C.2       12 UNK         0.5020 
     29 O         -58.0584  -27.9390   15.7466 O.2       12 UNK        -0.5489 
     30 CA        -57.1263  -27.3720   17.8877 C.3       11 UNK         0.0294 
     31 CB        -58.5030  -27.6848   18.5034 C.3       11 UNK        -0.2019 
     32 N         -56.1543  -28.3624   18.3635 N.am      11 UNK        -0.4493 
     33 C         -54.8254  -28.2322   18.2664 C.2       11 UNK         0.4932 
     34 O         -54.2812  -27.2045   17.8525 O.2       11 UNK        -0.5029 
     35 CA        -53.9769  -29.4526   18.6644 C.3       10 UNK         0.0280 
     36 CB        -54.3203  -30.6735   17.7917 C.3       10 UNK        -0.1976 
     37 N         -52.5687  -29.1261   18.4630 N.am      10 UNK        -0.4242 
     38 C         -51.6670  -28.8811   19.4204 C.2       10 UNK         0.5072 
     39 O         -51.8463  -29.0986   20.6196 O.2       10 UNK        -0.5224 
     40 CA        -50.3509  -28.2387   18.9476 C.3       9 UNK         0.0343 
     41 CB        -49.3674  -29.3091   18.4474 C.3       9 UNK        -0.2003 
     42 N         -50.6077  -27.2713   17.8775 N.am      9 UNK        -0.4272 
     43 C         -51.1032  -26.0423   18.0756 C.2       9 UNK         0.4988 
     44 O         -51.1908  -25.5112   19.1843 O.2       9 UNK        -0.5108 
     45 CA        -51.5759  -25.2932   16.8198 C.3       8 UNK         0.0248 
     46 CB        -51.8369  -23.7944   17.0649 C.3       8 UNK        -0.2001 
     47 N         -50.6095  -25.4555   15.7348 N.am      8 UNK        -0.4140 
     48 C         -50.9235  -25.7124   14.4615 C.2       8 UNK         0.5028 
     49 O         -52.0752  -25.8784   14.0470 O.2       8 UNK        -0.5428 
     50 CA        -49.7438  -25.8065   13.4888 C.3       7 UNK         0.0264 
     51 CB        -49.1928  -27.2393   13.4118 C.3       7 UNK        -0.1988 
     52 N         -50.1957  -25.3720   12.1693 N.am      7 UNK        -0.4454 
     53 C         -49.5459  -24.4931   11.3989 C.2       7 UNK         0.5027 
     54 O         -48.4217  -24.0560   11.6623 O.2       7 UNK        -0.5083 
     55 CA        -50.3067  -23.9605   10.1680 C.3       6 UNK         0.0844 
     56 C56       -51.3692  -22.9191   10.6096 C.3       14 UNK        -0.0967 
     57 S57       -52.2427  -22.1506    9.2022 S.3       14 UNK        -0.2604 
     58 C58       -53.7648  -23.1423    9.1215 C.3       14 UNK         0.0134 
     59 N         -49.3660  -23.3899    9.2020 N.am      6 UNK        -0.4116 
     60 C         -48.6475  -24.0922    8.3224 C.2       5 UNK         0.5034 
     61 O         -48.7319  -25.3142    8.1763 O.2       5 UNK        -0.5045 
     62 CA        -47.6298  -23.2836    7.5036 C.3       5 UNK         0.0224 
     63 CB        -46.3077  -23.1560    8.2774 C.3       5 UNK        -0.1978 
     64 N         -47.3714  -23.9007    6.2015 N.am      5 UNK        -0.4737 
     65 C         -48.1771  -23.7678    5.1374 C.2       4 UNK         0.5027 
     66 O         -49.2083  -23.0942    5.1598 O.2       4 UNK        -0.5211 
     67 CA        -47.7988  -24.5055    3.8342 C.3       4 UNK         0.0297 
     68 CB        -48.1028  -23.6685    2.5731 C.3       4 UNK        -0.1993 
     69 N         -46.4287  -25.0317    3.8105 N.am      4 UNK        -0.4486 
     70 C         -45.2773  -24.3397    3.7975 C.2       3 UNK         0.4961 
     71 O         -45.2146  -23.1120    3.7201 O.2       3 UNK        -0.5105 
     72 CA        -43.9754  -25.1664    3.9141 C.3       3 UNK         0.0299 
     73 CB        -42.8007  -24.3446    4.4871 C.3       3 UNK        -0.1972 
     74 N         -44.1445  -26.4202    4.6652 N.am      3 UNK        -0.4305 
     75 C         -44.5904  -26.5414    5.9244 C.2       2 UNK         0.5006 
     76 O         -44.8649  -25.5905    6.6563 O.2       2 UNK        -0.5106 
     77 CA        -44.8578  -27.9694    6.4230 C.3       2 UNK         0.0296 
     78 CB        -44.0838  -28.2563    7.7205 C.3       2 UNK        -0.2002 
     79 N         -46.2888  -28.1816    6.6560 N.am      2 UNK        -0.4032 
     80 C         -47.2577  -28.0818    5.7316 C.2       1 UNK         0.5000 
     81 O         -47.0249  -27.8230    4.5476 O.2       1 UNK        -0.5238 
     82 H82       -49.4710  -29.1768   10.6433 H         1 UNK         0.0889 
     83 H83       -49.5164  -27.5120   10.0622 H         1 UNK         0.0889 
     84 H84       -47.9689  -28.2661   10.4667 H         1 UNK         0.0889 
     85 H85       -48.9645  -27.0569    7.8693 H         1 UNK         0.3028 
     86 H86       -48.9108  -29.3685    5.9992 H         1 UNK         0.0864 
     87 H87       -49.5050  -27.5231    4.2939 H         1 UNK         0.0720 
     88 H88       -49.7044  -26.4397    5.6536 H         1 UNK         0.0720 
     89 H89       -51.9100  -25.7851    5.2411 H         1 UNK         0.0814 
     90 H90       -53.3500  -26.7593    5.1399 H         1 UNK         0.0814 
     91 H91       -52.8906  -24.1635    6.7565 H         1 UNK         0.1469 
     92 H92       -54.0469  -25.3429   10.7127 H         1 UNK         0.1381 
     93 H93       -52.9099  -28.3157    7.8535 H         1 UNK         0.1206 
     94 H94       -54.1451  -28.9249    9.8841 H         1 UNK         0.0813 
     95 H95       -54.5805  -27.7213   11.0718 H         1 UNK         0.0813 
     96 H96       -53.9474  -30.1144   11.9912 H         1 UNK         0.0638 
     97 H97       -52.3466  -30.7023   12.2409 H         1 UNK         0.0638 
     98 H98       -53.7306  -30.2798   14.3407 H         1 UNK         0.0568 
     99 H99       -51.0227  -31.0665   13.6832 H         1 UNK         0.3450 
    100 H100      -50.0616  -30.4577   15.0016 H         1 UNK         0.3450 
    101 H101      -53.2959  -27.4545   14.4270 H         1 UNK         0.2987 
    102 H102      -54.9264  -25.9713   14.2639 H         1 UNK         0.0766 
    103 H103      -56.5010  -26.1241   12.3844 H         1 UNK         0.0798 
    104 H104      -57.2413  -25.2318   13.7047 H         1 UNK         0.0798 
    105 H105      -57.7130  -26.9000   13.3861 H         1 UNK         0.0798 
    106 H106      -55.4346  -26.3500   16.3981 H         1 UNK         0.3198 
    107 H107      -56.8236  -26.3826   18.2385 H         1 UNK         0.0843 
    108 H108      -58.8563  -28.6794   18.2280 H         1 UNK         0.0831 
    109 H109      -59.2520  -26.9682   18.1636 H         1 UNK         0.0831 
    110 H110      -58.4731  -27.6286   19.5916 H         1 UNK         0.0831 
    111 H111      -56.5326  -29.2392   18.6927 H         1 UNK         0.3133 
    112 H112      -54.1746  -29.6873   19.7121 H         1 UNK         0.0566 
    113 H113      -54.2456  -30.4432   16.7287 H         1 UNK         0.0814 
    114 H114      -55.3351  -31.0257   17.9788 H         1 UNK         0.0814 
    115 H115      -53.6503  -31.5082   17.9992 H         1 UNK         0.0814 
    116 H116      -52.3188  -28.8678   17.5127 H         1 UNK         0.3091 
    117 H117      -49.8966  -27.7227   19.7963 H         1 UNK         0.0702 
    118 H118      -48.4206  -28.8640   18.1412 H         1 UNK         0.0785 
    119 H119      -49.7680  -29.8629   17.5974 H         1 UNK         0.0785 
    120 H120      -49.1470  -30.0322   19.2339 H         1 UNK         0.0785 
    121 H121      -50.6481  -27.6468   16.9344 H         1 UNK         0.2998 
    122 H122      -52.5230  -25.7560   16.5372 H         1 UNK         0.0697 
    123 H123      -50.9321  -23.2749   17.3818 H         1 UNK         0.0825 
    124 H124      -52.5889  -23.6501   17.8417 H         1 UNK         0.0825 
    125 H125      -52.2076  -23.3055   16.1639 H         1 UNK         0.0825 
    126 H126      -49.6363  -25.3703   15.9960 H         1 UNK         0.3029 
    127 H127      -48.9550  -25.1462   13.8568 H         1 UNK         0.0897 
    128 H128      -49.9247  -27.9325   12.9998 H         1 UNK         0.0792 
    129 H129      -48.9135  -27.6095   14.3991 H         1 UNK         0.0792 
    130 H130      -48.3018  -27.2829   12.7860 H         1 UNK         0.0792 
    131 H131      -51.1430  -25.6493   11.9421 H         1 UNK         0.3086 
    132 H132      -50.8148  -24.8051    9.6981 H         1 UNK         0.0583 
    133 H133      -52.1018  -23.3729   11.2799 H         1 UNK         0.1020 
    134 H134      -50.9016  -22.1154   11.1824 H         1 UNK         0.1020 
    135 H135      -54.2990  -23.0608   10.0694 H         1 UNK         0.0694 
    136 H136      -54.4227  -22.7144    8.3637 H         1 UNK         0.0694 
    137 H137      -49.2100  -22.3965    9.2807 H         1 UNK         0.2989 
    138 H138      -48.0290  -22.2802    7.3369 H         1 UNK         0.1055 
    139 H139      -45.9109  -24.1316    8.5608 H         1 UNK         0.0806 
    140 H140      -46.4472  -22.5877    9.1979 H         1 UNK         0.0806 
    141 H141      -45.5473  -22.6420    7.6891 H         1 UNK         0.0806 
    142 H142      -46.5524  -24.4968    6.1416 H         1 UNK         0.3061 
    143 H143      -48.4447  -25.3820    3.7945 H         1 UNK         0.0734 
    144 H144      -47.5649  -22.7203    2.5746 H         1 UNK         0.0832 
    145 H145      -47.8352  -24.2068    1.6640 H         1 UNK         0.0832 
    146 H146      -49.1659  -23.4343    2.5069 H         1 UNK         0.0832 
    147 H147      -46.3705  -26.0423    3.9085 H         1 UNK         0.3156 
    148 H148      -43.7107  -25.4546    2.8957 H         1 UNK         0.0589 
    149 H149      -42.5764  -23.4859    3.8530 H         1 UNK         0.0808 
    150 H150      -43.0230  -23.9623    5.4840 H         1 UNK         0.0808 
    151 H151      -41.8918  -24.9426    4.5520 H         1 UNK         0.0808 
    152 H152      -43.9856  -27.2671    4.1357 H         1 UNK         0.3098 
    153 H153      -44.5314  -28.6832    5.6639 H         1 UNK         0.0720 
    154 H154      -44.3935  -27.5948    8.5310 H         1 UNK         0.0791 
    155 H155      -43.0124  -28.1124    7.5745 H         1 UNK         0.0791 
    156 H156      -44.2299  -29.2846    8.0517 H         1 UNK         0.0791 
    157 H157      -46.5690  -28.3759    7.6055 H         1 UNK         0.3028 
@<TRIPOS>BOND
     1    1    2 1    
     2    1   82 1    
     3    1   83 1    
     4    1   84 1    
     5    2    3 2    
     6    2    4 am   BACKBONE|DICT|INTERRES
     7    4    5 1    
     8    4   85 1    
     9    5    6 1    
    10    5   80 1    
    11    5   86 1    
    12    6    7 1    
    13    6   87 1    
    14    6   88 1    
    15    7    8 1    
    16    8    9 1    
    17    8   89 1    
    18    8   90 1    
    19    9   10 ar   
    20    9   14 ar   
    21   10   11 ar   
    22   10   91 1    
    23   11   12 ar   
    24   11   58 1    
    25   12   13 ar   
    26   12   92 1    
    27   13   14 ar   
    28   13   15 1    
    29   14   93 1    
    30   15   16 1    
    31   15   94 1    
    32   15   95 1    
    33   16   17 1    
    34   17   18 1    
    35   17   96 1    
    36   17   97 1    
    37   18   19 1    
    38   18   22 1    
    39   18   98 1    
    40   19   20 am   BACKBONE|DICT|INTERRES
    41   19   21 2    
    42   20   99 1    
    43   20  100 1    
    44   22   23 am   BACKBONE|DICT|INTERRES
    45   22  101 1    
    46   23   24 2    
    47   23   25 1    
    48   25   26 1    
    49   25   27 1    
    50   25  102 1    
    51   26  103 1    
    52   26  104 1    
    53   26  105 1    
    54   27   28 am   BACKBONE|DICT|INTERRES
    55   27  106 1    
    56   28   29 2    
    57   28   30 1    
    58   30   31 1    
    59   30   32 1    
    60   30  107 1    
    61   31  108 1    
    62   31  109 1    
    63   31  110 1    
    64   32   33 am   BACKBONE|DICT|INTERRES
    65   32  111 1    
    66   33   34 2    
    67   33   35 1    
    68   35   36 1    
    69   35   37 1    
    70   35  112 1    
    71   36  113 1    
    72   36  114 1    
    73   36  115 1    
    74   37   38 am   BACKBONE|DICT|INTERRES
    75   37  116 1    
    76   38   39 2    
    77   38   40 1    
    78   40   41 1    
    79   40   42 1    
    80   40  117 1    
    81   41  118 1    
    82   41  119 1    
    83   41  120 1    
    84   42   43 am   BACKBONE|DICT|INTERRES
    85   42  121 1    
    86   43   44 2    
    87   43   45 1    
    88   45   46 1    
    89   45   47 1    
    90   45  122 1    
    91   46  123 1    
    92   46  124 1    
    93   46  125 1    
    94   47   48 am   BACKBONE|DICT|INTERRES
    95   47  126 1    
    96   48   49 2    
    97   48   50 1    
    98   50   51 1    
    99   50   52 1    
   100   50  127 1    
   101   51  128 1    
   102   51  129 1    
   103   51  130 1    
   104   52   53 am   BACKBONE|DICT|INTERRES
   105   52  131 1    
   106   53   54 2    
   107   53   55 1    
   108   55   56 1    
   109   55   59 1    
   110   55  132 1    
   111   56   57 1    
   112   56  133 1    
   113   56  134 1    
   114   57   58 1    
   115   58  135 1    
   116   58  136 1    
   117   59   60 am   BACKBONE|DICT|INTERRES
   118   59  137 1    
   119   60   61 2    
   120   60   62 1    
   121   62   63 1    
   122   62   64 1    
   123   62  138 1    
   124   63  139 1    
   125   63  140 1    
   126   63  141 1    
   127   64   65 am   BACKBONE|DICT|INTERRES
   128   64  142 1    
   129   65   66 2    
   130   65   67 1    
   131   67   68 1    
   132   67   69 1    
   133   67  143 1    
   134   68  144 1    
   135   68  145 1    
   136   68  146 1    
   137   69   70 am   BACKBONE|DICT|INTERRES
   138   69  147 1    
   139   70   71 2    
   140   70   72 1    
   141   72   73 1    
   142   72   74 1    
   143   72  148 1    
   144   73  149 1    
   145   73  150 1    
   146   73  151 1    
   147   74   75 am   BACKBONE|DICT|INTERRES
   148   74  152 1    
   149   75   76 2    
   150   75   77 1    
   151   77   78 1    
   152   77   79 1    
   153   77  153 1    
   154   78  154 1    
   155   78  155 1    
   156   78  156 1    
   157   79   80 am   BACKBONE|DICT|INTERRES
   158   79  157 1    
   159   80   81 2    
@<TRIPOS>SUBSTRUCTURE
     1 UNK         1 GROUP             0       ****    0 ROOT    
