@<TRIPOS>MOLECULE
3R207
157   159    1
SMALL
USER_CHARGES


@<TRIPOS>ATOM
      1 CA        -50.6357  -28.7200    1.7474 C.3       0 UNK        -0.1975 
      2 C         -50.5359  -28.2847    3.2015 C.2       0 UNK         0.4852 
      3 O         -50.8535  -27.1384    3.5233 O.2       0 UNK        -0.5216 
      4 N         -50.0826  -29.1823    4.0858 N.am      1 UNK        -0.4461 
      5 CA        -49.9473  -28.9772    5.5356 C.3       1 UNK         0.0864 
      6 C6        -50.0061  -30.3253    6.2999 C.3       14 UNK        -0.0898 
      7 S7        -51.6237  -31.1432    6.0792 S.3       14 UNK        -0.2598 
      8 C8        -52.0014  -31.7148    7.7727 C.3       14 UNK         0.0286 
      9 C9        -52.1419  -30.6231    8.8362 C.ar      14 UNK        -0.0844 
     10 C10       -52.4686  -29.2955    8.5259 C.ar      14 UNK        -0.0881 
     11 C11       -52.5924  -28.3351    9.5354 C.ar      14 UNK        -0.0643 
     12 C12       -52.4002  -28.7095   10.8665 C.ar      14 UNK        -0.0930 
     13 C13       -52.1057  -30.0358   11.1953 C.ar      14 UNK        -0.0827 
     14 C14       -51.9684  -30.9812   10.1763 C.ar      14 UNK        -0.1249 
     15 C15       -51.9614  -30.4578   12.6502 C.3       14 UNK         0.0141 
     16 S16       -53.4213  -30.0193   13.6502 S.3       14 UNK        -0.2313 
     17 C17       -54.7361  -31.0439   12.9011 C.3       14 UNK        -0.0915 
     18 CA        -55.4901  -30.3635   11.7222 C.3       13 UNK         0.0968 
     19 C         -56.6393  -31.2732   11.1989 C.2       13 UNK         0.5732 
     20 N         -57.8980  -30.8527   11.2453 N.am      13 UNK        -0.7310 
     21 O         -56.3833  -32.3830   10.7379 O.2       13 UNK        -0.5035 
     22 N         -55.8844  -28.9792   12.0352 N.am      13 UNK        -0.4233 
     23 C         -56.1465  -28.0334   11.1231 C.2       13 UNK         0.4989 
     24 O         -56.1373  -28.2343    9.9085 O.2       13 UNK        -0.4996 
     25 CA        -56.4933  -26.6218   11.6346 C.3       12 UNK         0.0216 
     26 CB        -57.9723  -26.2993   11.3596 C.3       12 UNK        -0.1964 
     27 N         -56.2216  -26.4184   13.0615 N.am      12 UNK        -0.4276 
     28 C         -55.0111  -26.1934   13.5879 C.2       12 UNK         0.5020 
     29 O         -53.9693  -26.1336   12.9308 O.2       12 UNK        -0.5489 
     30 CA        -54.9704  -26.0199   15.1103 C.3       11 UNK         0.0294 
     31 CB        -55.1335  -27.3715   15.8331 C.3       11 UNK        -0.2019 
     32 N         -53.7066  -25.4019   15.4978 N.am      11 UNK        -0.4493 
     33 C         -53.4816  -24.7634   16.6525 C.2       11 UNK         0.4932 
     34 O         -54.3463  -24.5825   17.5124 O.2       11 UNK        -0.5029 
     35 CA        -52.0465  -24.2550   16.8822 C.3       10 UNK         0.0280 
     36 CB        -51.7866  -23.7707   18.3243 C.3       10 UNK        -0.1976 
     37 N         -51.0450  -25.2395   16.4652 N.am      10 UNK        -0.4242 
     38 C         -50.8326  -26.4691   16.9576 C.2       10 UNK         0.5072 
     39 O         -51.4331  -26.9492   17.9199 O.2       10 UNK        -0.5224 
     40 CA        -49.7635  -27.3161   16.2437 C.3       9 UNK         0.0343 
     41 CB        -50.4087  -28.1661   15.1399 C.3       9 UNK        -0.2003 
     42 N         -48.6866  -26.5101   15.6625 N.am      9 UNK        -0.4272 
     43 C         -47.7614  -25.8557   16.3795 C.2       9 UNK         0.4988 
     44 O         -47.6553  -25.9393   17.6038 O.2       9 UNK        -0.5108 
     45 CA        -46.8070  -24.9323   15.6040 C.3       8 UNK         0.0248 
     46 CB        -45.6568  -25.7389   14.9805 C.3       8 UNK        -0.2001 
     47 N         -47.4911  -24.1463   14.5715 N.am      8 UNK        -0.4140 
     48 C         -48.4168  -23.2081   14.8259 C.2       8 UNK         0.5028 
     49 O         -48.7480  -22.8621   15.9598 O.2       8 UNK        -0.5428 
     50 CA        -49.1126  -22.5544   13.6210 C.3       7 UNK         0.0264 
     51 CB        -48.2537  -21.4125   13.0551 C.3       7 UNK        -0.1988 
     52 N         -49.4381  -23.5043   12.5550 N.am      7 UNK        -0.4454 
     53 C         -50.3146  -24.5145   12.6652 C.2       7 UNK         0.5027 
     54 O         -50.9769  -24.7322   13.6793 O.2       7 UNK        -0.5083 
     55 CA        -50.4355  -25.4690   11.4583 C.3       6 UNK         0.0844 
     56 C56       -51.3717  -24.8713   10.3791 C.3       14 UNK        -0.0967 
     57 S57       -51.5050  -25.8818    8.8617 S.3       14 UNK        -0.2604 
     58 C58       -52.9741  -26.9044    9.1887 C.3       14 UNK         0.0134 
     59 N         -49.1175  -25.8465   10.9398 N.am      6 UNK        -0.4116 
     60 C         -48.1843  -26.5047   11.6429 C.2       5 UNK         0.5034 
     61 O         -48.3432  -26.9094   12.7949 O.2       5 UNK        -0.5045 
     62 CA        -46.8184  -26.6863   10.9689 C.3       5 UNK         0.0224 
     63 CB        -46.8311  -27.8943   10.0195 C.3       5 UNK        -0.1978 
     64 N         -46.4136  -25.4770   10.2479 N.am      5 UNK        -0.4737 
     65 C         -46.0196  -24.3469   10.8534 C.2       4 UNK         0.5027 
     66 O         -45.9210  -24.2286   12.0738 O.2       4 UNK        -0.5211 
     67 CA        -45.7230  -23.1321    9.9573 C.3       4 UNK         0.0297 
     68 CB        -44.2811  -23.1911    9.4294 C.3       4 UNK        -0.1993 
     69 N         -46.6528  -23.0073    8.8334 N.am      4 UNK        -0.4486 
     70 C         -47.9710  -22.7982    8.9565 C.2       3 UNK         0.4961 
     71 O         -48.5405  -22.6308   10.0331 O.2       3 UNK        -0.5105 
     72 CA        -48.8084  -22.8253    7.6674 C.3       3 UNK         0.0299 
     73 CB        -48.9418  -21.4090    7.0864 C.3       3 UNK        -0.1972 
     74 N         -48.3068  -23.7364    6.6314 N.am      3 UNK        -0.4305 
     75 C         -48.1047  -25.0524    6.7893 C.2       2 UNK         0.5006 
     76 O         -48.2132  -25.6370    7.8682 O.2       2 UNK        -0.5106 
     77 CA        -47.6930  -25.8272    5.5304 C.3       2 UNK         0.0296 
     78 CB        -46.2121  -26.2553    5.5787 C.3       2 UNK        -0.2002 
     79 N         -48.6140  -26.9426    5.2897 N.am      2 UNK        -0.4032 
     80 C         -48.6921  -28.1429    5.8840 C.2       1 UNK         0.5000 
     81 O         -47.8398  -28.6047    6.6449 O.2       1 UNK        -0.5238 
     82 H82       -50.3244  -29.7553    1.6093 H         1 UNK         0.0889 
     83 H83       -50.0040  -28.0890    1.1227 H         1 UNK         0.0889 
     84 H84       -51.6637  -28.6258    1.3984 H         1 UNK         0.0889 
     85 H85       -49.8212  -30.1019    3.7597 H         1 UNK         0.3028 
     86 H86       -50.7970  -28.3795    5.8743 H         1 UNK         0.0864 
     87 H87       -49.2191  -31.0010    5.9605 H         1 UNK         0.0720 
     88 H88       -49.8321  -30.1668    7.3659 H         1 UNK         0.0720 
     89 H89       -51.2222  -32.4185    8.0702 H         1 UNK         0.0814 
     90 H90       -52.9320  -32.2828    7.7424 H         1 UNK         0.0814 
     91 H91       -52.6354  -29.0009    7.5000 H         1 UNK         0.1469 
     92 H92       -52.5237  -27.9783   11.6533 H         1 UNK         0.1381 
     93 H93       -51.7400  -32.0080   10.4283 H         1 UNK         0.1206 
     94 H94       -51.7847  -31.5311   12.7344 H         1 UNK         0.0813 
     95 H95       -51.0817  -29.9688   13.0665 H         1 UNK         0.0813 
     96 H96       -55.4391  -31.2943   13.6975 H         1 UNK         0.0638 
     97 H97       -54.2978  -31.9898   12.5775 H         1 UNK         0.0638 
     98 H98       -54.7929  -30.3045   10.8866 H         1 UNK         0.0568 
     99 H99       -58.6313  -31.4516   10.9000 H         1 UNK         0.3450 
    100 H100      -58.1196  -29.9436   11.6163 H         1 UNK         0.3450 
    101 H101      -55.9006  -28.7338   13.0123 H         1 UNK         0.2987 
    102 H102      -55.8822  -25.9178   11.0654 H         1 UNK         0.0766 
    103 H103      -58.2144  -25.2746   11.6423 H         1 UNK         0.0798 
    104 H104      -58.6413  -26.9662   11.9048 H         1 UNK         0.0798 
    105 H105      -58.2049  -26.4017   10.2985 H         1 UNK         0.0798 
    106 H106      -57.0209  -26.4458   13.6792 H         1 UNK         0.3198 
    107 H107      -55.7895  -25.3544   15.3923 H         1 UNK         0.0843 
    108 H108      -54.2842  -28.0283   15.6450 H         1 UNK         0.0831 
    109 H109      -56.0343  -27.8957   15.5124 H         1 UNK         0.0831 
    110 H110      -55.2103  -27.2367   16.9120 H         1 UNK         0.0831 
    111 H111      -52.9748  -25.4584   14.7949 H         1 UNK         0.3133 
    112 H112      -51.9166  -23.3978   16.2199 H         1 UNK         0.0566 
    113 H113      -50.7641  -23.4107   18.4401 H         1 UNK         0.0814 
    114 H114      -52.4519  -22.9467   18.5847 H         1 UNK         0.0814 
    115 H115      -51.9495  -24.5629   19.0555 H         1 UNK         0.0814 
    116 H116      -50.5561  -24.9982   15.6092 H         1 UNK         0.3091 
    117 H117      -49.3243  -27.9902   16.9821 H         1 UNK         0.0702 
    118 H118      -51.1947  -28.8035   15.5471 H         1 UNK         0.0785 
    119 H119      -50.8597  -27.5475   14.3622 H         1 UNK         0.0785 
    120 H120      -49.6733  -28.8162   14.6658 H         1 UNK         0.0785 
    121 H121      -48.6562  -26.4492   14.6477 H         1 UNK         0.2998 
    122 H122      -46.3750  -24.2296   16.3196 H         1 UNK         0.0697 
    123 H123      -46.0160  -26.4406   14.2277 H         1 UNK         0.0825 
    124 H124      -45.1287  -26.3169   15.7400 H         1 UNK         0.0825 
    125 H125      -44.9255  -25.0843   14.5062 H         1 UNK         0.0825 
    126 H126      -47.2137  -24.3169   13.6094 H         1 UNK         0.3029 
    127 H127      -50.0523  -22.1271   13.9780 H         1 UNK         0.0897 
    128 H128      -48.7761  -20.8810   12.2594 H         1 UNK         0.0792 
    129 H129      -47.3113  -21.7804   12.6479 H         1 UNK         0.0792 
    130 H130      -48.0136  -20.6825   13.8294 H         1 UNK         0.0792 
    131 H131      -48.9807  -23.3484   11.6577 H         1 UNK         0.3086 
    132 H132      -50.8981  -26.3848   11.8280 H         1 UNK         0.0583 
    133 H133      -52.3677  -24.7073   10.7955 H         1 UNK         0.1020 
    134 H134      -51.0159  -23.8852   10.0753 H         1 UNK         0.1020 
    135 H135      -53.5772  -26.4722    9.9882 H         1 UNK         0.0694 
    136 H136      -53.6087  -26.8989    8.3014 H         1 UNK         0.0694 
    137 H137      -48.9131  -25.5888    9.9811 H         1 UNK         0.2989 
    138 H138      -46.0823  -26.8800   11.7522 H         1 UNK         0.1055 
    139 H139      -47.0570  -28.8122   10.5636 H         1 UNK         0.0806 
    140 H140      -45.8644  -28.0325    9.5354 H         1 UNK         0.0806 
    141 H141      -47.5843  -27.7906    9.2381 H         1 UNK         0.0806 
    142 H142      -46.5762  -25.4706    9.2478 H         1 UNK         0.3061 
    143 H143      -45.8246  -22.2359   10.5732 H         1 UNK         0.0734 
    144 H144      -44.0274  -22.2943    8.8641 H         1 UNK         0.0832 
    145 H145      -43.5690  -23.2648   10.2527 H         1 UNK         0.0832 
    146 H146      -44.1208  -24.0546    8.7825 H         1 UNK         0.0832 
    147 H147      -46.2755  -23.1367    7.9062 H         1 UNK         0.3156 
    148 H148      -49.8062  -23.1739    7.9411 H         1 UNK         0.0589 
    149 H149      -47.9807  -21.0162    6.7520 H         1 UNK         0.0808 
    150 H150      -49.6277  -21.3890    6.2393 H         1 UNK         0.0808 
    151 H151      -49.3343  -20.7168    7.8331 H         1 UNK         0.0808 
    152 H152      -48.1761  -23.3366    5.7129 H         1 UNK         0.3098 
    153 H153      -47.8114  -25.1695    4.6678 H         1 UNK         0.0720 
    154 H154      -45.5578  -25.3830    5.5735 H         1 UNK         0.0791 
    155 H155      -45.9462  -26.8672    4.7169 H         1 UNK         0.0791 
    156 H156      -45.9785  -26.8230    6.4801 H         1 UNK         0.0791 
    157 H157      -49.3879  -26.7261    4.6652 H         1 UNK         0.3028 
@<TRIPOS>BOND
     1    1    2 1    
     2    1   82 1    
     3    1   83 1    
     4    1   84 1    
     5    2    3 2    
     6    2    4 am   BACKBONE|DICT|INTERRES
     7    4    5 1    
     8    4   85 1    
     9    5    6 1    
    10    5   80 1    
    11    5   86 1    
    12    6    7 1    
    13    6   87 1    
    14    6   88 1    
    15    7    8 1    
    16    8    9 1    
    17    8   89 1    
    18    8   90 1    
    19    9   10 ar   
    20    9   14 ar   
    21   10   11 ar   
    22   10   91 1    
    23   11   12 ar   
    24   11   58 1    
    25   12   13 ar   
    26   12   92 1    
    27   13   14 ar   
    28   13   15 1    
    29   14   93 1    
    30   15   16 1    
    31   15   94 1    
    32   15   95 1    
    33   16   17 1    
    34   17   18 1    
    35   17   96 1    
    36   17   97 1    
    37   18   19 1    
    38   18   22 1    
    39   18   98 1    
    40   19   20 am   BACKBONE|DICT|INTERRES
    41   19   21 2    
    42   20   99 1    
    43   20  100 1    
    44   22   23 am   BACKBONE|DICT|INTERRES
    45   22  101 1    
    46   23   24 2    
    47   23   25 1    
    48   25   26 1    
    49   25   27 1    
    50   25  102 1    
    51   26  103 1    
    52   26  104 1    
    53   26  105 1    
    54   27   28 am   BACKBONE|DICT|INTERRES
    55   27  106 1    
    56   28   29 2    
    57   28   30 1    
    58   30   31 1    
    59   30   32 1    
    60   30  107 1    
    61   31  108 1    
    62   31  109 1    
    63   31  110 1    
    64   32   33 am   BACKBONE|DICT|INTERRES
    65   32  111 1    
    66   33   34 2    
    67   33   35 1    
    68   35   36 1    
    69   35   37 1    
    70   35  112 1    
    71   36  113 1    
    72   36  114 1    
    73   36  115 1    
    74   37   38 am   BACKBONE|DICT|INTERRES
    75   37  116 1    
    76   38   39 2    
    77   38   40 1    
    78   40   41 1    
    79   40   42 1    
    80   40  117 1    
    81   41  118 1    
    82   41  119 1    
    83   41  120 1    
    84   42   43 am   BACKBONE|DICT|INTERRES
    85   42  121 1    
    86   43   44 2    
    87   43   45 1    
    88   45   46 1    
    89   45   47 1    
    90   45  122 1    
    91   46  123 1    
    92   46  124 1    
    93   46  125 1    
    94   47   48 am   BACKBONE|DICT|INTERRES
    95   47  126 1    
    96   48   49 2    
    97   48   50 1    
    98   50   51 1    
    99   50   52 1    
   100   50  127 1    
   101   51  128 1    
   102   51  129 1    
   103   51  130 1    
   104   52   53 am   BACKBONE|DICT|INTERRES
   105   52  131 1    
   106   53   54 2    
   107   53   55 1    
   108   55   56 1    
   109   55   59 1    
   110   55  132 1    
   111   56   57 1    
   112   56  133 1    
   113   56  134 1    
   114   57   58 1    
   115   58  135 1    
   116   58  136 1    
   117   59   60 am   BACKBONE|DICT|INTERRES
   118   59  137 1    
   119   60   61 2    
   120   60   62 1    
   121   62   63 1    
   122   62   64 1    
   123   62  138 1    
   124   63  139 1    
   125   63  140 1    
   126   63  141 1    
   127   64   65 am   BACKBONE|DICT|INTERRES
   128   64  142 1    
   129   65   66 2    
   130   65   67 1    
   131   67   68 1    
   132   67   69 1    
   133   67  143 1    
   134   68  144 1    
   135   68  145 1    
   136   68  146 1    
   137   69   70 am   BACKBONE|DICT|INTERRES
   138   69  147 1    
   139   70   71 2    
   140   70   72 1    
   141   72   73 1    
   142   72   74 1    
   143   72  148 1    
   144   73  149 1    
   145   73  150 1    
   146   73  151 1    
   147   74   75 am   BACKBONE|DICT|INTERRES
   148   74  152 1    
   149   75   76 2    
   150   75   77 1    
   151   77   78 1    
   152   77   79 1    
   153   77  153 1    
   154   78  154 1    
   155   78  155 1    
   156   78  156 1    
   157   79   80 am   BACKBONE|DICT|INTERRES
   158   79  157 1    
   159   80   81 2    
@<TRIPOS>SUBSTRUCTURE
     1 UNK         1 GROUP             0       ****    0 ROOT    
